@<TRIPOS>MOLECULE
C[C@]1(C2=CC=C(Cl)C=C2)[C@](C3=CC=C(Cl)C=C3)(C)N(C(N4CCN(CCCS(=O)(C)=O)CC4)=O)C(C5=CC=C(C(C)(C)C)C=C5OCC)=N1
97    101   1     0     0
SMALL
USER_CHARGES
@<TRIPOS>ATOM
1      C1      0.0988   -4.3594   -7.7720 C.3      1 ZINC000096270381   -0.1500
2      C2      0.4193   -5.0504   -6.4452 C.3      1 ZINC000096270381    0.0600
3      O3      1.1482   -4.1534   -5.6048 O.3      1 ZINC000096270381   -0.3000
4      C4      1.5131   -4.6143   -4.3815 C.ar     1 ZINC000096270381    0.2100
5      C5      1.1831   -5.9047   -3.9971 C.ar     1 ZINC000096270381   -0.2100
6      C6      1.5556   -6.3727   -2.7518 C.ar     1 ZINC000096270381   -0.0100
7      C7      1.1939   -7.7764   -2.3398 C.3      1 ZINC000096270381   -0.0300
8      C8      1.7141   -8.7649   -3.3854 C.3      1 ZINC000096270381   -0.1400
9      C9      1.8277   -8.0890   -0.9828 C.3      1 ZINC000096270381   -0.1400
10     C10    -0.3273   -7.9006   -2.2329 C.3      1 ZINC000096270381   -0.1400
11     C11     2.2597   -5.5593   -1.8805 C.ar     1 ZINC000096270381   -0.1700
12     C12     2.5952   -4.2730   -2.2477 C.ar     1 ZINC000096270381   -0.0300
13     C13     2.2295   -3.7903   -3.5046 C.ar     1 ZINC000096270381   -0.0900
14     C14     2.5862   -2.4125   -3.9041 C.2      1 ZINC000096270381    0.4500
15     N15     2.2016   -1.3685   -3.2475 N.2      1 ZINC000096270381   -0.5100
16     C16     2.7136   -0.1495   -3.8878 C.3      1 ZINC000096270381    0.1300
17     C17     1.5570    0.7406   -4.3470 C.3      1 ZINC000096270381   -0.1400
18     C18     3.6146    0.6038   -2.9435 C.ar     1 ZINC000096270381   -0.0600
19     C19     3.8080    1.9626   -3.1093 C.ar     1 ZINC000096270381   -0.1000
20     C20     4.6342    2.6540   -2.2435 C.ar     1 ZINC000096270381   -0.1100
21     C21     5.2678    1.9861   -1.2108 C.ar     1 ZINC000096270381   -0.0300
22     Cl22    6.3053    2.8540   -0.1227 Cl       1 ZINC000096270381   -0.0700
23     C23     5.0739    0.6262   -1.0454 C.ar     1 ZINC000096270381   -0.1100
24     C24     4.2430   -0.0631   -1.9084 C.ar     1 ZINC000096270381   -0.0800
25     C25     3.5108   -0.6671   -5.1013 C.3      1 ZINC000096270381    0.1600
26     C26     2.9081   -0.1431   -6.4062 C.3      1 ZINC000096270381   -0.2000
27     C27     4.9612   -0.2728   -4.9917 C.ar     1 ZINC000096270381   -0.0600
28     C28     5.3870    0.9416   -5.4968 C.ar     1 ZINC000096270381   -0.1100
29     C29     6.7171    1.3038   -5.3966 C.ar     1 ZINC000096270381   -0.0900
30     C30     7.6224    0.4509   -4.7908 C.ar     1 ZINC000096270381   -0.0400
31     Cl31    9.2930    0.9054   -4.6641 Cl       1 ZINC000096270381   -0.0600
32     C32     7.1956   -0.7643   -4.2855 C.ar     1 ZINC000096270381   -0.0900
33     C33     5.8642   -1.1230   -4.3812 C.ar     1 ZINC000096270381   -0.0900
34     N34     3.3627   -2.1290   -5.0058 N.am     1 ZINC000096270381   -0.5700
35     C35     3.8896   -3.0335   -5.8547 C.2      1 ZINC000096270381    0.7300
36     O36     3.6531   -4.2166   -5.7060 O.2      1 ZINC000096270381   -0.5400
37     N37     4.6787   -2.6264   -6.8686 N.am     1 ZINC000096270381   -0.6100
38     C38     4.8618   -1.1954   -7.1549 C.3      1 ZINC000096270381    0.0300
39     C39     6.3639   -0.9044   -7.2401 C.3      1 ZINC000096270381    0.0200
40     N40     6.9818   -1.8163   -8.2121 N.3      1 ZINC000096270381   -0.5400
41     C41     8.3862   -1.4581   -8.4510 C.3      1 ZINC000096270381    0.0700
42     C42     8.8788   -2.1477   -9.7248 C.3      1 ZINC000096270381   -0.1100
43     C43    10.3416   -1.7747   -9.9737 C.3      1 ZINC000096270381   -0.6100
44     S44    10.9256   -2.5924  -11.4840 S.o2     1 ZINC000096270381    2.4200
45     C45    12.6441   -2.0194  -11.5797 C.3      1 ZINC000096270381   -0.6600
46     O46    10.9280   -3.9966  -11.2666 O.2      1 ZINC000096270381   -0.9400
47     O47    10.2096   -2.0629  -12.5913 O.2      1 ZINC000096270381   -0.9400
48     C48     6.8612   -3.2155   -7.7812 C.3      1 ZINC000096270381    0.0400
49     C49     5.3844   -3.6011   -7.7143 C.3      1 ZINC000096270381    0.1400
50     H50    -0.5020   -3.4698   -7.5826 H        1 ZINC000096270381    0.0600
51     H51     1.0272   -4.0724   -8.2658 H        1 ZINC000096270381    0.0600
52     H52    -0.4571   -5.0436   -8.4130 H        1 ZINC000096270381    0.0800
53     H53    -0.5091   -5.3374   -5.9514 H        1 ZINC000096270381    0.0600
54     H54     1.0201   -5.9399   -6.6346 H        1 ZINC000096270381    0.0600
55     H55     0.6340   -6.5447   -4.6717 H        1 ZINC000096270381    0.1300
56     H56     2.7978   -8.6764   -3.4616 H        1 ZINC000096270381    0.0600
57     H57     1.4525   -9.7802   -3.0874 H        1 ZINC000096270381    0.0600
58     H58     1.2625   -8.5422   -4.3522 H        1 ZINC000096270381    0.0600
59     H59     1.3933   -7.4415   -0.2211 H        1 ZINC000096270381    0.0600
60     H60     1.6386   -9.1310   -0.7248 H        1 ZINC000096270381    0.0600
61     H61     2.9028   -7.9171   -1.0357 H        1 ZINC000096270381    0.0600
62     H62    -0.7788   -7.6780   -3.1997 H        1 ZINC000096270381    0.0600
63     H63    -0.5889   -8.9159   -1.9349 H        1 ZINC000096270381    0.0600
64     H64    -0.6979   -7.1964   -1.4880 H        1 ZINC000096270381    0.0600
65     H65     2.5472   -5.9335   -0.9091 H        1 ZINC000096270381    0.1300
66     H66     3.1439   -3.6414   -1.5647 H        1 ZINC000096270381    0.1300
67     H67     0.9652    1.0420   -3.4827 H        1 ZINC000096270381    0.0800
68     H68     1.9547    1.6266   -4.8419 H        1 ZINC000096270381    0.0700
69     H69     0.9271    0.1873   -5.0435 H        1 ZINC000096270381    0.0700
70     H70     3.3136    2.4838   -3.9157 H        1 ZINC000096270381    0.1300
71     H71     4.7855    3.7155   -2.3734 H        1 ZINC000096270381    0.1300
72     H72     5.5685    0.1042   -0.2396 H        1 ZINC000096270381    0.1300
73     H73     4.0913   -1.1245   -1.7791 H        1 ZINC000096270381    0.1300
74     H74     3.4309    0.7640   -6.7095 H        1 ZINC000096270381    0.0900
75     H75     3.0120   -0.8996   -7.1840 H        1 ZINC000096270381    0.0900
76     H76     1.8518    0.0797   -6.2549 H        1 ZINC000096270381    0.0900
77     H77     4.6803    1.6072   -5.9700 H        1 ZINC000096270381    0.1400
78     H78     7.0497    2.2524   -5.7916 H        1 ZINC000096270381    0.1400
79     H79     7.9018   -1.4307   -3.8128 H        1 ZINC000096270381    0.1300
80     H80     5.5309   -2.0714   -3.9866 H        1 ZINC000096270381    0.1200
81     H81     4.3865   -0.9481   -8.1041 H        1 ZINC000096270381    0.0800
82     H82     4.4188   -0.6023   -6.3548 H        1 ZINC000096270381    0.1700
83     H83     6.5172    0.1263   -7.5600 H        1 ZINC000096270381    0.0800
84     H84     6.8194   -1.0533   -6.2611 H        1 ZINC000096270381    0.0600
85     H85     8.4710   -0.3776   -8.5668 H        1 ZINC000096270381    0.0800
86     H86     8.9927   -1.7816   -7.6050 H        1 ZINC000096270381    0.0400
87     H87     8.7940   -3.2283   -9.6091 H        1 ZINC000096270381    0.0800
88     H88     8.2724   -1.8243  -10.5708 H        1 ZINC000096270381    0.0900
89     H89    10.4264   -0.6942  -10.0895 H        1 ZINC000096270381    0.1300
90     H90    10.9481   -2.0982   -9.1277 H        1 ZINC000096270381    0.1300
91     H91    13.1828   -2.3357  -10.6865 H        1 ZINC000096270381    0.1300
92     H92    13.1209   -2.4466  -12.4619 H        1 ZINC000096270381    0.1300
93     H93    12.6612   -0.9317  -11.6483 H        1 ZINC000096270381    0.1300
94     H94     7.3751   -3.8609   -8.4936 H        1 ZINC000096270381    0.0900
95     H95     7.3098   -3.3322   -6.7947 H        1 ZINC000096270381    0.0400
96     H96     5.2854   -4.5987   -7.2866 H        1 ZINC000096270381    0.1000
97     H97     4.9560   -3.5852   -8.7165 H        1 ZINC000096270381    0.0800
@<TRIPOS>BOND
1     1     2     1
2     1     50    1
3     1     51    1
4     1     52    1
5     2     3     1
6     2     53    1
7     2     54    1
8     3     4     1
9     4     13    ar
10    4     5     ar
11    5     6     ar
12    5     55    1
13    6     7     1
14    6     11    ar
15    7     8     1
16    7     9     1
17    7     10    1
18    8     56    1
19    8     57    1
20    8     58    1
21    9     59    1
22    9     60    1
23    9     61    1
24    10    62    1
25    10    63    1
26    10    64    1
27    11    12    ar
28    11    65    1
29    12    13    ar
30    12    66    1
31    13    14    1
32    14    34    1
33    14    15    2
34    15    16    1
35    16    17    1
36    16    18    1
37    16    25    1
38    17    67    1
39    17    68    1
40    17    69    1
41    18    24    ar
42    18    19    ar
43    19    20    ar
44    19    70    1
45    20    21    ar
46    20    71    1
47    21    22    1
48    21    23    ar
49    23    24    ar
50    23    72    1
51    24    73    1
52    25    26    1
53    25    27    1
54    25    34    1
55    26    74    1
56    26    75    1
57    26    76    1
58    27    33    ar
59    27    28    ar
60    28    29    ar
61    28    77    1
62    29    30    ar
63    29    78    1
64    30    31    1
65    30    32    ar
66    32    33    ar
67    32    79    1
68    33    80    1
69    34    35    am
70    35    36    2
71    35    37    am
72    37    49    1
73    37    38    1
74    38    39    1
75    38    81    1
76    38    82    1
77    39    40    1
78    39    83    1
79    39    84    1
80    40    41    1
81    40    48    1
82    41    42    1
83    41    85    1
84    41    86    1
85    42    43    1
86    42    87    1
87    42    88    1
88    43    44    1
89    43    89    1
90    43    90    1
91    44    45    1
92    44    46    2
93    44    47    2
94    45    91    1
95    45    92    1
96    45    93    1
97    48    49    1
98    48    94    1
99    48    95    1
100   49    96    1
101   49    97    1
@<TRIPOS>SUBSTRUCTURE
1   ZINC000096270381 1     RESIDUE    1   A     ZIN   1


@<TRIPOS>MOLECULE
O=C1C(C(NC2=CC(C3=CC=NN3)=CC=C2)=O)=CC=C(C(F)(F)F)N1
  36   38    0    0    0
SMALL
USER_CHARGES
NO_NAME
@<TRIPOS>ATOM
    1 O1        0.1304     0.2410     0.8566 O.2    1 <0>      -0.5200
    2 C2        0.0522     1.4071     0.5187 C.2    1 <0>       0.5800
    3 N3        1.1443     2.0508     0.0611 N.am   1 <0>      -0.6600
    4 C4        2.3984     1.4351     0.1282 C.ar   1 <0>       0.1400
    5 C5        2.5025     0.0550     0.0048 C.ar   1 <0>      -0.1200
    6 C6        3.7401    -0.5568     0.0705 C.ar   1 <0>      -0.1000
    7 C7        4.8794     0.1996     0.2592 C.ar   1 <0>      -0.1100
    8 C8        4.7844     1.5846     0.3835 C.ar   1 <0>       0.0000
    9 C9        6.0085     2.3992     0.5864 C.2    1 <0>       0.1200
   10 N10       6.0474     3.6947     0.8151 N.2    1 <0>      -0.2800
   11 N11       7.3894     4.0734     0.9474 N.pl3  1 <0>      -0.4700
   12 C12       8.1544     2.9714     0.7922 C.2    1 <0>       0.0600
   13 C13       7.3333     1.9212     0.5742 C.2    1 <0>      -0.2600
   14 C14       3.5391     2.2024     0.3122 C.ar   1 <0>      -0.1200
   15 C15      -1.2353     2.1125     0.6038 C.2    1 <0>      -0.2400
   16 C16      -2.3226     1.5282     1.2504 C.2    1 <0>       0.0600
   17 C17      -3.5278     2.2275     1.3110 C.2    1 <0>      -0.1600
   18 C18      -3.6312     3.4574     0.7457 C.2    1 <0>       0.0900
   19 C19      -4.9415     4.1981     0.8212 C.3    1 <0>       0.5100
   20 F20      -5.8774     3.4208     1.5120 F      1 <0>      -0.1500
   21 F21      -4.7540     5.4100     1.4943 F      1 <0>      -0.1600
   22 F22      -5.4094     4.4509    -0.4728 F      1 <0>      -0.1600
   23 N23      -2.5787     4.0315     0.1156 N.am   1 <0>      -0.5800
   24 C24      -1.3907     3.4027     0.0339 C.2    1 <0>       0.5400
   25 O25      -0.4550     3.9357    -0.5370 O.2    1 <0>      -0.5300
   26 H26       1.0607     2.9411    -0.3147 H      1 <0>       0.4300
   27 H27       1.6141    -0.5411    -0.1426 H      1 <0>       0.1500
   28 H28       3.8160    -1.6298    -0.0256 H      1 <0>       0.1300
   29 H29       5.8447    -0.2820     0.3108 H      1 <0>       0.1300
   30 H30       7.7131     4.9713     1.1202 H      1 <0>       0.4400
   31 H31       9.2328     2.9354     0.8386 H      1 <0>       0.1800
   32 H32       7.6387     0.8980     0.4121 H      1 <0>       0.1500
   33 H33       3.4605     3.2753     0.4080 H      1 <0>       0.1300
   34 H34      -2.2335     0.5490     1.6973 H      1 <0>       0.1700
   35 H35      -4.3806     1.7895     1.8083 H      1 <0>       0.1800
   36 H36      -2.6811     4.9114    -0.2796 H      1 <0>       0.4300
@<TRIPOS>BOND
   1    1    2 2
   2    2    3 am
   3    2   15 1
   4    3    4 1
   5    3   26 1
   6    4   14 ar
   7    4    5 ar
   8    5    6 ar
   9    5   27 1
  10    6    7 ar
  11    6   28 1
  12    7    8 ar
  13    7   29 1
  14    8    9 1
  15    8   14 ar
  16    9   13 1
  17    9   10 2
  18   10   11 1
  19   11   12 1
  20   11   30 1
  21   12   13 2
  22   12   31 1
  23   13   32 1
  24   14   33 1
  25   15   24 1
  26   15   16 2
  27   16   17 1
  28   16   34 1
  29   17   18 2
  30   17   35 1
  31   18   19 1
  32   18   23 1
  33   19   20 1
  34   19   21 1
  35   19   22 1
  36   23   24 am
  37   23   36 1
  38   24   25 2


@<TRIPOS>MOLECULE
O=C1C(C(NC2=CC(C3=NN=NN3)=CC=C2)=O)=CC=C(C(F)(F)F)N1
34    36    1     0     0
SMALL
USER_CHARGES
@<TRIPOS>ATOM
1      O1      0.1302    0.2413    0.8559 O.2      1 ZINC000650363794   -0.5200
2      C2      0.0525    1.4075    0.5180 C.2      1 ZINC000650363794    0.5800
3      N3      1.1449    2.0508    0.0606 N.am     1 ZINC000650363794   -0.6600
4      C4      2.3987    1.4346    0.1280 C.ar     1 ZINC000650363794    0.1400
5      C5      2.5024    0.0546    0.0053 C.ar     1 ZINC000650363794   -0.1100
6      C6      3.7398   -0.5575    0.0713 C.ar     1 ZINC000650363794   -0.1000
7      C7      4.8793    0.1988    0.2596 C.ar     1 ZINC000650363794   -0.0900
8      C8      4.7846    1.5836    0.3837 C.ar     1 ZINC000650363794    0.0000
9      C9      6.0093    2.3981    0.5867 C.2      1 ZINC000650363794    0.2200
10     N10     7.2473    1.9523    0.6641 N.2      1 ZINC000650363794   -0.2900
11     N11     8.0213    2.9671    0.8428 N.pl3    1 ZINC000650363794   -0.2300
12     N12     7.3131    4.0414    0.8811 N.2      1 ZINC000650363794   -0.0500
13     N13     6.0716    3.7303    0.7212 N.2      1 ZINC000650363794   -0.2700
14     C14     3.5398    2.2017    0.3116 C.ar     1 ZINC000650363794   -0.1000
15     C15    -1.2347    2.1134    0.6030 C.2      1 ZINC000650363794   -0.2400
16     C16    -2.3225    1.5292    1.2491 C.2      1 ZINC000650363794    0.0600
17     C17    -3.5272    2.2292    1.3100 C.2      1 ZINC000650363794   -0.1600
18     C18    -3.6297    3.4599    0.7461 C.2      1 ZINC000650363794    0.0900
19     C19    -4.9395    4.2013    0.8219 C.3      1 ZINC000650363794    0.5100
20     F20    -5.8761    3.4239    1.5116 F        1 ZINC000650363794   -0.1500
21     F21    -4.7515    5.4124    1.4965 F        1 ZINC000650363794   -0.1600
22     F22    -5.4069    4.4558   -0.4719 F        1 ZINC000650363794   -0.1600
23     N23    -2.5766    4.0340    0.1170 N.am     1 ZINC000650363794   -0.5800
24     C24    -1.3895    3.4040    0.0337 C.2      1 ZINC000650363794    0.5400
25     O25    -0.4532    3.9370   -0.5363 O.2      1 ZINC000650363794   -0.5300
26     H26     1.0616    2.9411   -0.3153 H        1 ZINC000650363794    0.4300
27     H27     1.6138   -0.5414   -0.1418 H        1 ZINC000650363794    0.1500
28     H28     3.8155   -1.6306   -0.0242 H        1 ZINC000650363794    0.1400
29     H29     5.8445   -0.2830    0.3111 H        1 ZINC000650363794    0.1300
30     H30     8.9862    2.9275    0.9344 H        1 ZINC000650363794    0.4800
31     H31     3.4616    3.2746    0.4069 H        1 ZINC000650363794    0.1400
32     H32    -2.2341    0.5497    1.6953 H        1 ZINC000650363794    0.1700
33     H33    -4.3805    1.7912    1.8066 H        1 ZINC000650363794    0.1800
34     H34    -2.6782    4.9146   -0.2768 H        1 ZINC000650363794    0.4300
@<TRIPOS>BOND
1     1     2     2
2     2     3     am
3     2     15    1
4     3     4     1
5     3     26    1
6     4     14    ar
7     4     5     ar
8     5     6     ar
9     5     27    1
10    6     7     ar
11    6     28    1
12    7     8     ar
13    7     29    1
14    8     9     1
15    8     14    ar
16    9     13    1
17    9     10    2
18    10    11    1
19    11    12    1
20    11    30    1
21    12    13    2
22    14    31    1
23    15    24    1
24    15    16    2
25    16    17    1
26    16    32    1
27    17    18    2
28    17    33    1
29    18    19    1
30    18    23    1
31    19    20    1
32    19    21    1
33    19    22    1
34    23    24    am
35    23    34    1
36    24    25    2
@<TRIPOS>SUBSTRUCTURE
1   ZINC000650363794 1     RESIDUE    1   A     ZIN   1


@<TRIPOS>MOLECULE
CCN1C2=C(C=CC(=C2)OC)SC1=CC(=O)C
32    33    1     0     0
SMALL
USER_CHARGES
@<TRIPOS>ATOM
1      C1     -0.0187    1.5258    0.0104 C.3      1 ZINC000004793192   -0.1700
2      C2      0.0021   -0.0041    0.0020 C.3      1 ZINC000004793192    0.1000
3      N3      0.6878   -0.4765   -1.2033 N.pl3    1 ZINC000004793192   -0.5100
4      C4     -0.0115   -0.7112   -2.3716 C.ar     1 ZINC000004793192    0.1700
5      C5     -1.3881   -0.5522   -2.5953 C.ar     1 ZINC000004793192   -0.1700
6      C6     -1.9384   -0.8309   -3.8291 C.ar     1 ZINC000004793192    0.1700
7      O7     -3.2746   -0.6692   -4.0217 O.3      1 ZINC000004793192   -0.3100
8      C8     -3.7843   -0.9743   -5.3214 C.3      1 ZINC000004793192    0.0300
9      C9     -1.1419   -1.2744   -4.8768 C.ar     1 ZINC000004793192   -0.2100
10     C10     0.2146   -1.4364   -4.6757 C.ar     1 ZINC000004793192    0.0000
11     C11     0.7695   -1.1579   -3.4384 C.ar     1 ZINC000004793192   -0.2400
12     S12     2.4302   -1.2498   -2.8355 S.3      1 ZINC000004793192    0.1600
13     C13     2.0267   -0.6900   -1.2042 C.2      1 ZINC000004793192    0.2100
14     C14     2.9024   -0.5123   -0.1407 C.2      1 ZINC000004793192   -0.3500
15     C15     4.2510   -0.7832   -0.3015 C.2      1 ZINC000004793192    0.3800
16     C16     5.2011   -0.5904    0.8523 C.3      1 ZINC000004793192   -0.1900
17     O17     4.6692   -1.1772   -1.3754 O.2      1 ZINC000004793192   -0.5000
18     H18     1.0039    1.9031    0.0027 H        1 ZINC000004793192    0.0700
19     H19    -0.5459    1.8868   -0.8726 H        1 ZINC000004793192    0.0600
20     H20    -0.5289    1.8773    0.9072 H        1 ZINC000004793192    0.0800
21     H21     0.5293   -0.3651    0.8851 H        1 ZINC000004793192    0.1000
22     H22    -1.0205   -0.3814    0.0098 H        1 ZINC000004793192    0.0900
23     H23    -2.0235   -0.2082   -1.7925 H        1 ZINC000004793192    0.1400
24     H24    -3.5788   -2.0186   -5.5563 H        1 ZINC000004793192    0.0600
25     H25    -4.8606   -0.8029   -5.3390 H        1 ZINC000004793192    0.1000
26     H26    -3.3023   -0.3340   -6.0602 H        1 ZINC000004793192    0.0600
27     H27    -1.5796   -1.4911   -5.8401 H        1 ZINC000004793192    0.1400
28     H28     0.8429   -1.7808   -5.4838 H        1 ZINC000004793192    0.1400
29     H29     2.5316   -0.1629    0.8116 H        1 ZINC000004793192    0.1400
30     H30     5.2701   -1.5155    1.4246 H        1 ZINC000004793192    0.0900
31     H31     6.1870   -0.3249    0.4706 H        1 ZINC000004793192    0.0800
32     H32     4.8335    0.2086    1.4961 H        1 ZINC000004793192    0.0800
@<TRIPOS>BOND
1     1     2     1
2     1     18    1
3     1     19    1
4     1     20    1
5     2     3     1
6     2     21    1
7     2     22    1
8     3     13    1
9     3     4     1
10    4     11    ar
11    4     5     ar
12    5     6     ar
13    5     23    1
14    6     7     1
15    6     9     ar
16    7     8     1
17    8     24    1
18    8     25    1
19    8     26    1
20    9     10    ar
21    9     27    1
22    10    11    ar
23    10    28    1
24    11    12    1
25    12    13    1
26    13    14    2
27    14    15    1
28    14    29    1
29    15    16    1
30    15    17    2
31    16    30    1
32    16    31    1
33    16    32    1
@<TRIPOS>SUBSTRUCTURE
1   ZINC000004793192 1     RESIDUE    1   A     ZIN   1


@<TRIPOS>MOLECULE
CCN(CC)CCNC(=O)C1=C(NC(=C1C)/C=C\2/C3=C(C=CC(=C3)F)NC2=O)C
  57   59    0    0    0
SMALL
USER_CHARGES
NO_NAME
@<TRIPOS>ATOM
    1 C1        0.1886     0.9380     0.0964 C.3    1 <0>      -0.1900
    2 C2        0.0799    -0.5806    -0.0559 C.3    1 <0>      -0.0200
    3 N3        0.5884    -0.9780    -1.3755 N.4    1 <0>      -0.3800
    4 H4        0.1053    -0.4580    -2.0927 H      1 <0>       0.4300
    5 C5        2.0279    -0.6951    -1.4511 C.3    1 <0>      -0.0100
    6 C6        2.5290    -0.9756    -2.8692 C.3    1 <0>      -0.1900
    7 C7        0.3607    -2.4154    -1.5754 C.3    1 <0>      -0.0300
    8 C8       -1.1434    -2.6920    -1.6211 C.3    1 <0>       0.0900
    9 N9       -1.3705    -4.1255    -1.8204 N.am   1 <0>      -0.7300
   10 C10      -2.6280    -4.6049    -1.8930 C.2    1 <0>       0.6100
   11 O11      -3.5742    -3.8475    -1.7929 O.2    1 <0>      -0.5200
   12 C12      -2.8565    -6.0474    -2.0936 C.2    1 <0>      -0.2400
   13 C13      -2.9951    -7.0019    -1.1022 C.2    1 <0>       0.1200
   14 C14      -2.9378    -6.7422     0.3811 C.3    1 <0>      -0.1000
   15 N15      -3.1898    -8.1988    -1.6805 N.pl3  1 <0>      -0.4900
   16 C16      -3.1818    -8.0480    -3.0518 C.2    1 <0>      -0.0100
   17 C17      -3.3547    -9.0789    -4.0011 C.2    1 <0>       0.0700
   18 C18      -4.1931   -10.1399    -3.7230 C.2    1 <0>      -0.1900
   19 C19      -5.0952   -10.2882    -2.5729 C.2    1 <0>       0.5600
   20 O20      -5.2448    -9.4821    -1.6719 O.2    1 <0>      -0.5100
   21 N21      -5.7270   -11.4685    -2.6893 N.am   1 <0>      -0.6500
   22 C22      -5.3271   -12.1462    -3.8360 C.ar   1 <0>       0.1300
   23 C23      -5.7009   -13.3781    -4.3604 C.ar   1 <0>      -0.1000
   24 C24      -5.1402   -13.8291    -5.5384 C.ar   1 <0>      -0.1100
   25 C25      -4.2006   -13.0633    -6.2117 C.ar   1 <0>       0.0800
   26 F26      -3.6597   -13.5174    -7.3634 F      1 <0>      -0.1300
   27 C27      -3.8175   -11.8353    -5.7055 C.ar   1 <0>      -0.1000
   28 C28      -4.3822   -11.3710    -4.5222 C.ar   1 <0>      -0.0700
   29 C29      -2.9807    -6.7111    -3.3329 C.2    1 <0>      -0.0600
   30 C30      -2.9005    -6.0828    -4.7004 C.3    1 <0>      -0.0900
   31 H31       1.2392     1.2282     0.1027 H      1 <0>       0.0800
   32 H32      -0.3176     1.4239    -0.7377 H      1 <0>       0.0800
   33 H33      -0.2784     1.2436     1.0326 H      1 <0>       0.1100
   34 H34       0.6688    -1.0668     0.7219 H      1 <0>       0.1300
   35 H35      -0.9636    -0.8813     0.0371 H      1 <0>       0.1300
   36 H36       2.2061     0.3513    -1.2032 H      1 <0>       0.1400
   37 H37       2.5609    -1.3317    -0.7449 H      1 <0>       0.1300
   38 H38       2.4416    -2.0412    -3.0813 H      1 <0>       0.0800
   39 H39       1.9295    -0.4125    -3.5845 H      1 <0>       0.0800
   40 H40       3.5729    -0.6731    -2.9522 H      1 <0>       0.1100
   41 H41       0.8164    -2.7283    -2.5149 H      1 <0>       0.1400
   42 H42       0.8077    -2.9721    -0.7517 H      1 <0>       0.1400
   43 H43      -1.5990    -2.3792    -0.6816 H      1 <0>       0.0900
   44 H44      -1.5903    -2.1353    -2.4448 H      1 <0>       0.0900
   45 H45      -0.6157    -4.7296    -1.9003 H      1 <0>       0.4100
   46 H46      -3.9391    -6.5203     0.7501 H      1 <0>       0.0900
   47 H47      -2.5504    -7.6249     0.8898 H      1 <0>       0.0800
   48 H48      -2.2823    -5.8934     0.5763 H      1 <0>       0.0800
   49 H49      -3.3158    -9.0368    -1.2084 H      1 <0>       0.4300
   50 H50      -2.8311    -9.0373    -4.9447 H      1 <0>       0.1600
   51 H51      -6.3787   -11.8050    -2.0545 H      1 <0>       0.4200
   52 H52      -6.4315   -13.9838    -3.8449 H      1 <0>       0.1400
   53 H53      -5.4358   -14.7875    -5.9391 H      1 <0>       0.1500
   54 H54      -3.0860   -11.2372    -6.2287 H      1 <0>       0.1400
   55 H55      -3.8970    -5.7765    -5.0185 H      1 <0>       0.0800
   56 H56      -2.2473    -5.2110    -4.6619 H      1 <0>       0.0600
   57 H57      -2.4991    -6.8065    -5.4097 H      1 <0>       0.0700
@<TRIPOS>BOND
   1    1    2 1
   2    1   31 1
   3    1   32 1
   4    1   33 1
   5    2    3 1
   6    2   34 1
   7    2   35 1
   8    3    4 1
   9    3    5 1
  10    3    7 1
  11    5    6 1
  12    5   36 1
  13    5   37 1
  14    6   38 1
  15    6   39 1
  16    6   40 1
  17    7    8 1
  18    7   41 1
  19    7   42 1
  20    8    9 1
  21    8   43 1
  22    8   44 1
  23    9   10 am
  24    9   45 1
  25   10   11 2
  26   10   12 1
  27   12   29 1
  28   12   13 2
  29   13   14 1
  30   13   15 1
  31   14   46 1
  32   14   47 1
  33   14   48 1
  34   15   16 1
  35   15   49 1
  36   16   17 1
  37   16   29 2
  38   17   18 2
  39   17   50 1
  40   18   28 1
  41   18   19 1
  42   19   20 2
  43   19   21 am
  44   21   22 1
  45   21   51 1
  46   22   28 ar
  47   22   23 ar
  48   23   24 ar
  49   23   52 1
  50   24   25 ar
  51   24   53 1
  52   25   26 1
  53   25   27 ar
  54   27   28 ar
  55   27   54 1
  56   29   30 1
  57   30   55 1
  58   30   56 1
  59   30   57 1


@<TRIPOS>MOLECULE
CN1C=C(C2=C(C1=O)C=NC=C2)C3=CC(=C(C(=C3)OC)CN(C)C)OC
49    51    1     0     0
SMALL
USER_CHARGES
@<TRIPOS>ATOM
1      C1     -0.0173    1.4248    0.0099 C.3      1 ZINC000575448880    0.0300
2      O2      0.0021   -0.0041    0.0020 O.3      1 ZINC000575448880   -0.3100
3      C3     -1.2003   -0.6375    0.0101 C.ar     1 ZINC000575448880    0.1700
4      C4     -2.3718    0.1020    0.0195 C.ar     1 ZINC000575448880   -0.2300
5      C5     -3.6044   -0.5484    0.0273 C.ar     1 ZINC000575448880    0.0500
6      C6     -4.8599    0.2394    0.0368 C.2      1 ZINC000575448880   -0.1500
7      C7     -5.1906    1.0211   -1.0229 C.2      1 ZINC000575448880    0.1500
8      N8     -6.3343    1.7590   -1.0527 N.am     1 ZINC000575448880   -0.5200
9      C9     -6.6147    2.5759   -2.2361 C.3      1 ZINC000575448880    0.0600
10     C10    -7.2189    1.7667   -0.0357 C.2      1 ZINC000575448880    0.5500
11     O11    -8.2301    2.4414   -0.1054 O.2      1 ZINC000575448880   -0.5100
12     C12    -6.9517    0.9543    1.1547 C.ar     1 ZINC000575448880   -0.2100
13     C13    -7.8152    0.9085    2.2458 C.ar     1 ZINC000575448880    0.1900
14     N14    -7.5155    0.1567    3.2863 N.ar     1 ZINC000575448880   -0.5000
15     C15    -6.4126   -0.5712    3.3467 C.ar     1 ZINC000575448880    0.1300
16     C16    -5.5053   -0.5891    2.3221 C.ar     1 ZINC000575448880   -0.1800
17     C17    -5.7662    0.1811    1.1887 C.ar     1 ZINC000575448880    0.0600
18     C18    -3.6538   -1.9412    0.0256 C.ar     1 ZINC000575448880   -0.2300
19     C19    -2.4784   -2.6744    0.0163 C.ar     1 ZINC000575448880    0.1900
20     O20    -2.5256   -4.0326    0.0142 O.3      1 ZINC000575448880   -0.3000
21     C21    -3.8206   -4.6367    0.0221 C.3      1 ZINC000575448880    0.0300
22     C22    -1.2532   -2.0237    0.0032 C.ar     1 ZINC000575448880   -0.1400
23     C23     0.0233   -2.8247   -0.0071 C.3      1 ZINC000575448880    0.1100
24     N24     0.4250   -3.0881   -1.3953 N.3      1 ZINC000575448880   -0.5400
25     C25     0.7886   -1.8423   -2.0836 C.3      1 ZINC000575448880    0.0300
26     C26     1.5252   -4.0600   -1.4496 C.3      1 ZINC000575448880    0.0300
27     H27     1.0053    1.8021    0.0021 H        1 ZINC000575448880    0.1000
28     H28    -0.5445    1.7859   -0.8732 H        1 ZINC000575448880    0.0600
29     H29    -0.5275    1.7763    0.9067 H        1 ZINC000575448880    0.0600
30     H30    -2.3299    1.1812    0.0211 H        1 ZINC000575448880    0.1300
31     H31    -4.5233    1.0592   -1.8712 H        1 ZINC000575448880    0.1700
32     H32    -7.1830    1.9881   -2.9570 H        1 ZINC000575448880    0.0800
33     H33    -7.1941    3.4517   -1.9441 H        1 ZINC000575448880    0.1000
34     H34    -5.6756    2.8955   -2.6877 H        1 ZINC000575448880    0.0900
35     H35    -8.7272    1.4871    2.2400 H        1 ZINC000575448880    0.1700
36     H36    -6.2231   -1.1667    4.2275 H        1 ZINC000575448880    0.1600
37     H37    -4.6098   -1.1892    2.3879 H        1 ZINC000575448880    0.1400
38     H38    -4.6073   -2.4484    0.0320 H        1 ZINC000575448880    0.1300
39     H39    -3.7155   -5.7216    0.0194 H        1 ZINC000575448880    0.1000
40     H40    -4.3609   -4.3262    0.9163 H        1 ZINC000575448880    0.0600
41     H41    -4.3732   -4.3231   -0.8636 H        1 ZINC000575448880    0.0600
42     H42     0.8089   -2.2627    0.4981 H        1 ZINC000575448880    0.0500
43     H43    -0.1370   -3.7705    0.5105 H        1 ZINC000575448880    0.0900
44     H44     1.6210   -1.3691   -1.5627 H        1 ZINC000575448880    0.0300
45     H45     1.0819   -2.0662   -3.1093 H        1 ZINC000575448880    0.0600
46     H46    -0.0673   -1.1674   -2.0895 H        1 ZINC000575448880    0.0700
47     H47     1.2049   -4.9973   -0.9946 H        1 ZINC000575448880    0.0700
48     H48     1.8029   -4.2368   -2.4887 H        1 ZINC000575448880    0.0700
49     H49     2.3843   -3.6671   -0.9058 H        1 ZINC000575448880    0.0200
@<TRIPOS>BOND
1     1     2     1
2     1     27    1
3     1     28    1
4     1     29    1
5     2     3     1
6     3     22    ar
7     3     4     ar
8     4     5     ar
9     4     30    1
10    5     6     1
11    5     18    ar
12    6     17    1
13    6     7     2
14    7     8     1
15    7     31    1
16    8     9     1
17    8     10    am
18    9     32    1
19    9     33    1
20    9     34    1
21    10    11    2
22    10    12    1
23    12    17    ar
24    12    13    ar
25    13    14    ar
26    13    35    1
27    14    15    ar
28    15    16    ar
29    15    36    1
30    16    17    ar
31    16    37    1
32    18    19    ar
33    18    38    1
34    19    20    1
35    19    22    ar
36    20    21    1
37    21    39    1
38    21    40    1
39    21    41    1
40    22    23    1
41    23    24    1
42    23    42    1
43    23    43    1
44    24    25    1
45    24    26    1
46    25    44    1
47    25    45    1
48    25    46    1
49    26    47    1
50    26    48    1
51    26    49    1
@<TRIPOS>SUBSTRUCTURE
1   ZINC000575448880 1     RESIDUE    1   A     ZIN   1


@<TRIPOS>MOLECULE
CN1C=C(C2=C(C1=O)C=NC=C2)C3=C(C=C(C(=C3)OC)CN(C)C)OC
50    52    1     0     0
SMALL
USER_CHARGES
@<TRIPOS>ATOM
1      C1     -0.0173    1.4248    0.0099 C.3      1 ZINC000526061652    0.0200
2      O2      0.0021   -0.0041    0.0020 O.3      1 ZINC000526061652   -0.3300
3      C3     -1.2010   -0.6378    0.0101 C.ar     1 ZINC000526061652    0.1200
4      C4     -2.3715    0.1016    0.0195 C.ar     1 ZINC000526061652   -0.1500
5      C5     -3.6035   -0.5493    0.0278 C.ar     1 ZINC000526061652    0.0200
6      C6     -4.8600    0.2367    0.0374 C.2      1 ZINC000526061652   -0.1700
7      C7     -5.6154    0.3415   -1.0858 C.2      1 ZINC000526061652    0.1800
8      N8     -6.7758    1.0542   -1.1175 N.am     1 ZINC000526061652   -0.5200
9      C9     -7.5304    1.1159   -2.3717 C.3      1 ZINC000526061652    0.0600
10     C10    -7.2567    1.7045   -0.0392 C.2      1 ZINC000526061652    0.5500
11     O11    -8.2994    2.3293   -0.1124 O.2      1 ZINC000526061652   -0.5000
12     C12    -6.5124    1.6516    1.2223 C.ar     1 ZINC000526061652   -0.2100
13     C13    -6.9429    2.2956    2.3793 C.ar     1 ZINC000526061652    0.1900
14     N14    -6.2263    2.2079    3.4821 N.ar     1 ZINC000526061652   -0.5000
15     C15    -5.0953    1.5246    3.5459 C.ar     1 ZINC000526061652    0.1300
16     C16    -4.5940    0.8600    2.4594 C.ar     1 ZINC000526061652   -0.1900
17     C17    -5.3086    0.9076    1.2622 C.ar     1 ZINC000526061652    0.0700
18     C18    -3.6499   -1.9468    0.0265 C.ar     1 ZINC000526061652    0.1200
19     O19    -4.8485   -2.5885    0.0341 O.3      1 ZINC000526061652   -0.3000
20     C20    -4.8194   -4.0172    0.0323 C.3      1 ZINC000526061652    0.0200
21     C21    -2.4725   -2.6759    0.0171 C.ar     1 ZINC000526061652   -0.1500
22     C22    -1.2533   -2.0249    0.0032 C.ar     1 ZINC000526061652   -0.1500
23     C23     0.0242   -2.8242   -0.0071 C.3      1 ZINC000526061652    0.0500
24     N24     0.5803   -2.8759    1.3516 N.4      1 ZINC000526061652   -0.3900
25     H25     0.6956   -1.9375    1.7038 H        1 ZINC000526061652    0.4300
26     C26    -0.3357   -3.6186    2.2276 C.3      1 ZINC000526061652   -0.0500
27     C27     1.8844   -3.5514    1.3216 C.3      1 ZINC000526061652   -0.0500
28     H28     1.0053    1.8021    0.0021 H        1 ZINC000526061652    0.1100
29     H29    -0.5445    1.7859   -0.8732 H        1 ZINC000526061652    0.0700
30     H30    -0.5275    1.7763    0.9067 H        1 ZINC000526061652    0.0600
31     H31    -2.3297    1.1808    0.0208 H        1 ZINC000526061652    0.1500
32     H32    -5.2848   -0.1570   -1.9851 H        1 ZINC000526061652    0.1600
33     H33    -8.2414    0.2905   -2.4089 H        1 ZINC000526061652    0.0800
34     H34    -8.0690    2.0620   -2.4255 H        1 ZINC000526061652    0.1000
35     H35    -6.8424    1.0410   -3.2138 H        1 ZINC000526061652    0.0900
36     H36    -7.8605    2.8652    2.3731 H        1 ZINC000526061652    0.1800
37     H37    -4.5533    1.4906    4.4794 H        1 ZINC000526061652    0.1600
38     H38    -3.6689    0.3071    2.5288 H        1 ZINC000526061652    0.1400
39     H39    -4.3045   -4.3690   -0.8617 H        1 ZINC000526061652    0.0600
40     H40    -4.2921   -4.3710    0.9182 H        1 ZINC000526061652    0.0600
41     H41    -5.8395   -4.4013    0.0389 H        1 ZINC000526061652    0.1100
42     H42    -2.5072   -3.7554    0.0164 H        1 ZINC000526061652    0.1500
43     H43    -0.1833   -3.8366   -0.3535 H        1 ZINC000526061652    0.1300
44     H44     0.7432   -2.3514   -0.6761 H        1 ZINC000526061652    0.1400
45     H45     0.0769   -3.6570    3.2358 H        1 ZINC000526061652    0.1200
46     H46    -1.3034   -3.1174    2.2500 H        1 ZINC000526061652    0.1200
47     H47    -0.4603   -4.6324    1.8472 H        1 ZINC000526061652    0.1200
48     H48     2.5641   -3.0004    0.6716 H        1 ZINC000526061652    0.1200
49     H49     2.2970   -3.5898    2.3297 H        1 ZINC000526061652    0.1200
50     H50     1.7598   -4.5652    0.9411 H        1 ZINC000526061652    0.1200
@<TRIPOS>BOND
1     1     2     1
2     1     28    1
3     1     29    1
4     1     30    1
5     2     3     1
6     3     22    ar
7     3     4     ar
8     4     5     ar
9     4     31    1
10    5     6     1
11    5     18    ar
12    6     17    1
13    6     7     2
14    7     8     1
15    7     32    1
16    8     9     1
17    8     10    am
18    9     33    1
19    9     34    1
20    9     35    1
21    10    11    2
22    10    12    1
23    12    17    ar
24    12    13    ar
25    13    14    ar
26    13    36    1
27    14    15    ar
28    15    16    ar
29    15    37    1
30    16    17    ar
31    16    38    1
32    18    19    1
33    18    21    ar
34    19    20    1
35    20    39    1
36    20    40    1
37    20    41    1
38    21    22    ar
39    21    42    1
40    22    23    1
41    23    24    1
42    23    43    1
43    23    44    1
44    24    25    1
45    24    26    1
46    24    27    1
47    26    45    1
48    26    46    1
49    26    47    1
50    27    48    1
51    27    49    1
52    27    50    1
@<TRIPOS>SUBSTRUCTURE
1   ZINC000526061652 1     RESIDUE    1   A     ZIN   1


@<TRIPOS>MOLECULE
CC1=C(C=C(C=C1)C(=O)NC2CC2)C3=C4N=CC=CN4C(=C3)C(=O)C
44    47    1     0     0
SMALL
USER_CHARGES
@<TRIPOS>ATOM
1      C1     -0.0184    1.5028    0.0103 C.3      1 ZINC000585672941   -0.1900
2      C2      0.0021   -0.0041    0.0020 C.2      1 ZINC000585672941    0.4200
3      O3      1.0631   -0.5976   -0.0113 O.2      1 ZINC000585672941   -0.4900
4      C4     -1.2042   -0.7226    0.0097 C.2      1 ZINC000585672941   -0.1400
5      C5     -2.4808   -0.1704    0.0188 C.2      1 ZINC000585672941   -0.0300
6      C6     -3.3930   -1.2211    0.0242 C.2      1 ZINC000585672941   -0.1300
7      C7     -4.8695   -1.0999    0.0339 C.ar     1 ZINC000585672941   -0.0100
8      C8     -5.5304   -0.5396   -1.0557 C.ar     1 ZINC000585672941   -0.0400
9      C9     -6.9197   -0.4291   -1.0388 C.ar     1 ZINC000585672941   -0.1400
10     C10    -7.6300    0.1643   -2.1919 C.2      1 ZINC000585672941    0.5700
11     O11    -7.0022    0.5565   -3.1561 O.2      1 ZINC000585672941   -0.5300
12     N12    -8.9734    0.2704   -2.1739 N.am     1 ZINC000585672941   -0.7000
13     C13    -9.6772    0.8584   -3.3164 C.3      1 ZINC000585672941    0.0800
14     C14   -10.9470    0.1561   -3.8015 C.3      1 ZINC000585672941   -0.1900
15     C15   -11.0470    1.4877   -3.0546 C.3      1 ZINC000585672941   -0.1900
16     C16    -7.6391   -0.8806    0.0695 C.ar     1 ZINC000585672941   -0.0800
17     C17    -6.9768   -1.4354    1.1466 C.ar     1 ZINC000585672941   -0.1300
18     C18    -5.6011   -1.5527    1.1331 C.ar     1 ZINC000585672941   -0.0300
19     C19    -4.8867   -2.1599    2.3130 C.3      1 ZINC000585672941   -0.1200
20     C20    -2.6552   -2.4213    0.0182 C.2      1 ZINC000585672941    0.2600
21     N21    -3.0446   -3.6992    0.0192 N.2      1 ZINC000585672941   -0.4500
22     C22    -2.1639   -4.6751    0.0119 C.2      1 ZINC000585672941    0.1600
23     C23    -0.7942   -4.3864    0.0033 C.2      1 ZINC000585672941   -0.2000
24     C24    -0.3884   -3.0908    0.0022 C.2      1 ZINC000585672941    0.1200
25     N25    -1.3260   -2.0998    0.0034 N.pl3    1 ZINC000585672941   -0.3400
26     H26     1.0042    1.8801    0.0026 H        1 ZINC000585672941    0.0900
27     H27    -0.5455    1.8639   -0.8728 H        1 ZINC000585672941    0.1000
28     H28    -0.5286    1.8543    0.9071 H        1 ZINC000585672941    0.1000
29     H29    -2.7205    0.8827    0.0215 H        1 ZINC000585672941    0.1700
30     H30    -4.9690   -0.1916   -1.9102 H        1 ZINC000585672941    0.1400
31     H31    -9.4744   -0.0426   -1.4045 H        1 ZINC000585672941    0.4000
32     H32    -9.0429    1.3280   -4.0682 H        1 ZINC000585672941    0.1400
33     H33   -11.1483    0.1636   -4.8727 H        1 ZINC000585672941    0.1000
34     H34   -11.2588   -0.7433   -3.2706 H        1 ZINC000585672941    0.1000
35     H35   -11.4245    1.4643   -2.0324 H        1 ZINC000585672941    0.1000
36     H36   -11.3140    2.3712   -3.6345 H        1 ZINC000585672941    0.1100
37     H37    -8.7157   -0.7954    0.0843 H        1 ZINC000585672941    0.1200
38     H38    -7.5376   -1.7832    2.0016 H        1 ZINC000585672941    0.1300
39     H39    -4.7981   -3.2367    2.1691 H        1 ZINC000585672941    0.0800
40     H40    -3.8924   -1.7219    2.4005 H        1 ZINC000585672941    0.0600
41     H41    -5.4531   -1.9602    3.2226 H        1 ZINC000585672941    0.0700
42     H42    -2.4980   -5.7021    0.0128 H        1 ZINC000585672941    0.1800
43     H43    -0.0680   -5.1857   -0.0020 H        1 ZINC000585672941    0.1700
44     H44     0.6638   -2.8477   -0.0044 H        1 ZINC000585672941    0.1900
@<TRIPOS>BOND
1     1     2     1
2     1     26    1
3     1     27    1
4     1     28    1
5     2     3     2
6     2     4     1
7     4     25    1
8     4     5     2
9     5     6     1
10    5     29    1
11    6     7     1
12    6     20    2
13    7     18    ar
14    7     8     ar
15    8     9     ar
16    8     30    1
17    9     10    1
18    9     16    ar
19    10    11    2
20    10    12    am
21    12    13    1
22    12    31    1
23    13    15    1
24    13    14    1
25    13    32    1
26    14    15    1
27    14    33    1
28    14    34    1
29    15    35    1
30    15    36    1
31    16    17    ar
32    16    37    1
33    17    18    ar
34    17    38    1
35    18    19    1
36    19    39    1
37    19    40    1
38    19    41    1
39    20    25    1
40    20    21    1
41    21    22    2
42    22    23    1
43    22    42    1
44    23    24    2
45    23    43    1
46    24    25    1
47    24    44    1
@<TRIPOS>SUBSTRUCTURE
1   ZINC000585672941 1     RESIDUE    1   A     ZIN   1


@<TRIPOS>MOLECULE
CCOC(=O)NC1=CC(=NN2C1=NN=C2C)C3=CC(=C(C=C3)C)NS(=O)(=O)C
48    50    1     0     0
SMALL
USER_CHARGES
@<TRIPOS>ATOM
1      C1     -3.7264    1.9416    1.4443 C.3      1 ZINC000095616589   -0.1500
2      C2     -4.0271    0.4481    1.5847 C.3      1 ZINC000095616589    0.0800
3      O3     -3.2555   -0.2952    0.6046 O.3      1 ZINC000095616589   -0.3600
4      C4     -3.4062   -1.6331    0.5950 C.2      1 ZINC000095616589    0.6600
5      O5     -4.1617   -2.1651    1.3840 O.2      1 ZINC000095616589   -0.5300
6      N6     -2.7189   -2.3823   -0.2898 N.am     1 ZINC000095616589   -0.6500
7      C7     -2.7981   -3.7728   -0.2354 C.2      1 ZINC000095616589    0.2900
8      C8     -1.6692   -4.5261   -0.0702 C.2      1 ZINC000095616589   -0.1800
9      C9     -1.7613   -5.9297   -0.0167 C.2      1 ZINC000095616589    0.2200
10     C10    -0.5298   -6.7379    0.1633 C.ar     1 ZINC000095616589   -0.0300
11     C11     0.7076   -6.1082    0.2842 C.ar     1 ZINC000095616589   -0.0900
12     C12     1.8528   -6.8614    0.4512 C.ar     1 ZINC000095616589   -0.1000
13     C13     1.7771   -8.2401    0.4991 C.ar     1 ZINC000095616589   -0.0800
14     C14     3.0311   -9.0558    0.6811 C.3      1 ZINC000095616589   -0.1200
15     C15     0.5471   -8.8768    0.3804 C.ar     1 ZINC000095616589    0.1500
16     N16     0.4743  -10.2709    0.4298 N.am     1 ZINC000095616589   -1.0500
17     S17    -0.6333  -11.0757   -0.5018 S.o2     1 ZINC000095616589    2.6000
18     C18    -0.2092  -10.6188   -2.2053 C.3      1 ZINC000095616589   -0.6700
19     O19    -0.3541  -12.4496   -0.2698 O.2      1 ZINC000095616589   -0.9500
20     O20    -1.8821  -10.5089   -0.1297 O.2      1 ZINC000095616589   -0.9400
21     C21    -0.6082   -8.1270    0.2177 C.ar     1 ZINC000095616589   -0.1300
22     N22    -2.9247   -6.5346   -0.1238 N.2      1 ZINC000095616589   -0.2400
23     N23    -4.0976   -5.7966   -0.2934 N.pl3    1 ZINC000095616589   -0.2900
24     C24    -5.3998   -6.1279   -0.4295 C.2      1 ZINC000095616589    0.2200
25     C25    -5.9670   -7.5240   -0.4308 C.3      1 ZINC000095616589   -0.0700
26     N26    -6.0810   -5.0163   -0.5595 N.2      1 ZINC000095616589   -0.2600
27     N27    -5.2890   -4.0023   -0.5138 N.2      1 ZINC000095616589   -0.2200
28     C28    -4.0480   -4.4254   -0.3444 C.2      1 ZINC000095616589    0.1300
29     H29    -4.3056    2.4996    2.1800 H        1 ZINC000095616589    0.0900
30     H30    -2.6633    2.1155    1.6111 H        1 ZINC000095616589    0.0700
31     H31    -3.9959    2.2739    0.4418 H        1 ZINC000095616589    0.0700
32     H32    -3.7575    0.1158    2.5872 H        1 ZINC000095616589    0.0700
33     H33    -5.0901    0.2742    1.4179 H        1 ZINC000095616589    0.0800
34     H34    -2.1693   -1.9539   -0.9644 H        1 ZINC000095616589    0.4300
35     H35    -0.7067   -4.0443    0.0189 H        1 ZINC000095616589    0.1700
36     H36     0.7708   -5.0307    0.2468 H        1 ZINC000095616589    0.1400
37     H37     2.8107   -6.3712    0.5442 H        1 ZINC000095616589    0.1400
38     H38     3.2129   -9.2104    1.7447 H        1 ZINC000095616589    0.0800
39     H39     2.9114  -10.0210    0.1890 H        1 ZINC000095616589    0.0700
40     H40     3.8761   -8.5261    0.2414 H        1 ZINC000095616589    0.0800
41     H41     1.0725  -10.7676    1.0098 H        1 ZINC000095616589    0.4300
42     H42     0.8113  -10.9342   -2.4227 H        1 ZINC000095616589    0.1300
43     H43    -0.8959  -11.1097   -2.8948 H        1 ZINC000095616589    0.1400
44     H44    -0.2881   -9.5379   -2.3219 H        1 ZINC000095616589    0.1300
45     H45    -1.5649   -8.6195    0.1253 H        1 ZINC000095616589    0.1800
46     H46    -6.2224   -7.8134    0.5886 H        1 ZINC000095616589    0.0900
47     H47    -6.8626   -7.5518   -1.0516 H        1 ZINC000095616589    0.1000
48     H48    -5.2263   -8.2167   -0.8304 H        1 ZINC000095616589    0.0900
@<TRIPOS>BOND
1     1     2     1
2     1     29    1
3     1     30    1
4     1     31    1
5     2     3     1
6     2     32    1
7     2     33    1
8     3     4     1
9     4     5     2
10    4     6     am
11    6     7     1
12    6     34    1
13    7     28    1
14    7     8     2
15    8     9     1
16    8     35    1
17    9     10    1
18    9     22    2
19    10    21    ar
20    10    11    ar
21    11    12    ar
22    11    36    1
23    12    13    ar
24    12    37    1
25    13    14    1
26    13    15    ar
27    14    38    1
28    14    39    1
29    14    40    1
30    15    16    1
31    15    21    ar
32    16    17    am
33    16    41    1
34    17    18    1
35    17    19    2
36    17    20    2
37    18    42    1
38    18    43    1
39    18    44    1
40    21    45    1
41    22    23    1
42    23    28    1
43    23    24    1
44    24    25    1
45    24    26    2
46    25    46    1
47    25    47    1
48    25    48    1
49    26    27    1
50    27    28    2
@<TRIPOS>SUBSTRUCTURE
1   ZINC000095616589 1     RESIDUE    1   A     ZIN   1


@<TRIPOS>MOLECULE
CC1=CC(=O)N(C2=C1C=CC(=C2)N3C(C(CCC3=O)NS(=O)(=O)CC(C)C)C4=CC=C(C=C4)Cl)C
65    68    1     0     0
SMALL
USER_CHARGES
@<TRIPOS>ATOM
1      C1     -0.0192    0.9278   -0.6698 C.3      1 ZINC000514251193   -0.1300
2      C2     -0.9442    0.8981    0.5195 C.2      1 ZINC000514251193    0.0200
3      C3     -1.9927    1.7558    0.6041 C.2      1 ZINC000514251193   -0.2200
4      C4     -2.8520    1.7198    1.7212 C.2      1 ZINC000514251193    0.5400
5      O5     -3.7875    2.4995    1.7764 O.2      1 ZINC000514251193   -0.5400
6      N6     -2.6661    0.8471    2.7269 N.am     1 ZINC000514251193   -0.5200
7      C7     -3.5885    0.8499    3.8650 C.3      1 ZINC000514251193    0.0600
8      C8     -1.6197   -0.0511    2.7021 C.ar     1 ZINC000514251193    0.2000
9      C9     -1.4287   -0.9523    3.7406 C.ar     1 ZINC000514251193   -0.1600
10     C10    -0.3691   -1.8441    3.6897 C.ar     1 ZINC000514251193    0.2000
11     N11    -0.1764   -2.7504    4.7333 N.am     1 ZINC000514251193   -0.5600
12     C12    -0.3206   -4.0493    4.4677 C.2      1 ZINC000514251193    0.5200
13     O13    -0.6506   -4.3726    3.3464 O.2      1 ZINC000514251193   -0.5200
14     C14    -0.0957   -5.1330    5.4827 C.3      1 ZINC000514251193   -0.1300
15     C15    -0.1219   -4.5390    6.8932 C.3      1 ZINC000514251193   -0.1500
16     C16     0.7926   -3.3084    6.9180 C.3      1 ZINC000514251193    0.1500
17     H17     1.7743   -3.5743    6.5261 H        1 ZINC000514251193    0.1000
18     N18     0.9274   -2.8238    8.2939 N.am     1 ZINC000514251193   -1.1100
19     S19     2.2137   -3.3054    9.2191 S.o2     1 ZINC000514251193    2.6100
20     O20     2.0012   -2.6704   10.4724 O.2      1 ZINC000514251193   -0.9500
21     O21     2.2155   -4.7219    9.1064 O.2      1 ZINC000514251193   -0.9400
22     C22     3.6611   -2.5986    8.3848 C.3      1 ZINC000514251193   -0.6200
23     C23     4.9285   -2.9779    9.1533 C.3      1 ZINC000514251193   -0.0800
24     C24     5.1269   -4.4938    9.0933 C.3      1 ZINC000514251193   -0.1800
25     C25     6.1354   -2.2803    8.5227 C.3      1 ZINC000514251193   -0.1400
26     C26     0.1756   -2.2184    6.0438 C.3      1 ZINC000514251193    0.1800
27     H27    -0.7253   -1.8375    6.5249 H        1 ZINC000514251193    0.1000
28     C28     1.1649   -1.0937    5.8776 C.ar     1 ZINC000514251193   -0.1100
29     C29     2.2850   -1.2701    5.0868 C.ar     1 ZINC000514251193   -0.0900
30     C30     3.1927   -0.2390    4.9340 C.ar     1 ZINC000514251193   -0.1100
31     C31     2.9800    0.9698    5.5726 C.ar     1 ZINC000514251193   -0.0200
32     Cl32    4.1193    2.2655    5.3807 Cl       1 ZINC000514251193   -0.0600
33     C33     1.8588    1.1457    6.3638 C.ar     1 ZINC000514251193   -0.1100
34     C34     0.9489    0.1157    6.5114 C.ar     1 ZINC000514251193   -0.0900
35     C35     0.5062   -1.8435    2.6031 C.ar     1 ZINC000514251193   -0.1300
36     C36     0.3326   -0.9645    1.5745 C.ar     1 ZINC000514251193   -0.0400
37     C37    -0.7352   -0.0596    1.6049 C.ar     1 ZINC000514251193   -0.1200
38     H38    -0.3966    0.2556   -1.4404 H        1 ZINC000514251193    0.0900
39     H39     0.0313    1.9422   -1.0655 H        1 ZINC000514251193    0.0800
40     H40     0.9766    0.6071   -0.3638 H        1 ZINC000514251193    0.0800
41     H41    -2.1692    2.4691   -0.1874 H        1 ZINC000514251193    0.1500
42     H42    -4.3470    1.6183    3.7161 H        1 ZINC000514251193    0.1000
43     H43    -4.0696   -0.1249    3.9451 H        1 ZINC000514251193    0.0700
44     H44    -3.0351    1.0582    4.7807 H        1 ZINC000514251193    0.0700
45     H45    -2.1025   -0.9582    4.5846 H        1 ZINC000514251193    0.1400
46     H46    -0.8809   -5.8834    5.3912 H        1 ZINC000514251193    0.1100
47     H47     0.8727   -5.6005    5.3047 H        1 ZINC000514251193    0.1100
48     H48    -1.1399   -4.2449    7.1487 H        1 ZINC000514251193    0.0800
49     H49     0.2377   -5.2779    7.6093 H        1 ZINC000514251193    0.1100
50     H50     0.2632   -2.2209    8.6631 H        1 ZINC000514251193    0.4200
51     H51     3.7216   -2.9891    7.3689 H        1 ZINC000514251193    0.1300
52     H52     3.5674   -1.5131    8.3517 H        1 ZINC000514251193    0.1400
53     H53     4.8303   -2.6652   10.1929 H        1 ZINC000514251193    0.0800
54     H54     6.0298   -4.7640    9.6409 H        1 ZINC000514251193    0.0700
55     H55     4.2671   -4.9908    9.5426 H        1 ZINC000514251193    0.0700
56     H56     5.2251   -4.8065    8.0538 H        1 ZINC000514251193    0.0700
57     H57     5.9941   -1.2003    8.5654 H        1 ZINC000514251193    0.0600
58     H58     7.0383   -2.5505    9.0703 H        1 ZINC000514251193    0.0600
59     H59     6.2336   -2.5930    7.4832 H        1 ZINC000514251193    0.0600
60     H60     2.4511   -2.2138    4.5887 H        1 ZINC000514251193    0.1300
61     H61     4.0679   -0.3770    4.3165 H        1 ZINC000514251193    0.1400
62     H62     1.6924    2.0889    6.8628 H        1 ZINC000514251193    0.1400
63     H63     0.0735    0.2530    7.1287 H        1 ZINC000514251193    0.1400
64     H64     1.3278   -2.5440    2.5764 H        1 ZINC000514251193    0.1300
65     H65     1.0142   -0.9699    0.7367 H        1 ZINC000514251193    0.1400
@<TRIPOS>BOND
1     1     2     1
2     1     38    1
3     1     39    1
4     1     40    1
5     2     37    1
6     2     3     2
7     3     4     1
8     3     41    1
9     4     5     2
10    4     6     am
11    6     7     1
12    6     8     1
13    7     42    1
14    7     43    1
15    7     44    1
16    8     37    ar
17    8     9     ar
18    9     10    ar
19    9     45    1
20    10    11    1
21    10    35    ar
22    11    26    1
23    11    12    am
24    12    13    2
25    12    14    1
26    14    15    1
27    14    46    1
28    14    47    1
29    15    16    1
30    15    48    1
31    15    49    1
32    16    17    1
33    16    18    1
34    16    26    1
35    18    19    am
36    18    50    1
37    19    20    2
38    19    21    2
39    19    22    1
40    22    23    1
41    22    51    1
42    22    52    1
43    23    24    1
44    23    25    1
45    23    53    1
46    24    54    1
47    24    55    1
48    24    56    1
49    25    57    1
50    25    58    1
51    25    59    1
52    26    27    1
53    26    28    1
54    28    34    ar
55    28    29    ar
56    29    30    ar
57    29    60    1
58    30    31    ar
59    30    61    1
60    31    32    1
61    31    33    ar
62    33    34    ar
63    33    62    1
64    34    63    1
65    35    36    ar
66    35    64    1
67    36    37    ar
68    36    65    1
@<TRIPOS>SUBSTRUCTURE
1   ZINC000514251193 1     RESIDUE    1   A     ZIN   1


@<TRIPOS>MOLECULE
O=C(NC1CCCCC1)C(N(CC2=CC(OCO3)=C3C=C2)C(C4=CC=C(OC(C(O)=O)C(O)=O)C=C4)=O)C5=CC=C(OCP(O)(O)=O)C=C5
81    85    1     0     0
SMALL
USER_CHARGES
@<TRIPOS>ATOM
1      O1     -8.2187    1.0171  -11.4731 O.co2    1 ZINC000026674761   -0.7000
2      C2     -7.4350    0.1888  -11.0414 C.2      1 ZINC000026674761    0.5200
3      O3     -6.6834   -0.3947  -11.8037 O.co2    1 ZINC000026674761   -0.6800
4      C4     -7.3911   -0.1093   -9.5648 C.3      1 ZINC000026674761   -0.0500
5      O5     -8.3545    0.6995   -8.8868 O.3      1 ZINC000026674761   -0.2600
6      C6     -8.1484    0.9250   -7.5645 C.ar     1 ZINC000026674761    0.2100
7      C7     -7.0024    0.4362   -6.9484 C.ar     1 ZINC000026674761   -0.2300
8      C8     -6.7896    0.6628   -5.6069 C.ar     1 ZINC000026674761   -0.0100
9      C9     -7.7274    1.3857   -4.8650 C.ar     1 ZINC000026674761   -0.1800
10     C10    -7.5031    1.6313   -3.4270 C.2      1 ZINC000026674761    0.5900
11     O11    -6.3732    1.7873   -3.0060 O.2      1 ZINC000026674761   -0.5400
12     N12    -8.5507    1.6827   -2.5806 N.am     1 ZINC000026674761   -0.5900
13     C13    -8.3516    1.4253   -1.1522 C.3      1 ZINC000026674761    0.1300
14     C14    -8.0744    2.7249   -0.4414 C.ar     1 ZINC000026674761   -0.0800
15     C15    -6.7705    3.1133   -0.1982 C.ar     1 ZINC000026674761   -0.0800
16     C16    -6.5110    4.3049    0.4536 C.ar     1 ZINC000026674761   -0.1100
17     C17    -7.5584    5.1123    0.8650 C.ar     1 ZINC000026674761    0.0200
18     O18    -7.5750    6.3123    1.5155 O.3      1 ZINC000026674761   -0.3200
19     C19    -8.8951    6.8464    1.3033 C.3      1 ZINC000026674761    0.2100
20     O20    -9.7121    5.6756    1.1168 O.3      1 ZINC000026674761   -0.3100
21     C21    -8.8727    4.7208    0.6198 C.ar     1 ZINC000026674761    0.0200
22     C22    -9.1250    3.5289   -0.0390 C.ar     1 ZINC000026674761   -0.0900
23     C23    -9.8884    1.9959   -3.0890 C.3      1 ZINC000026674761    0.1700
24     H24    -9.8747    2.9742   -3.5694 H        1 ZINC000026674761    0.1000
25     C25   -10.3025    0.9497   -4.0916 C.2      1 ZINC000026674761    0.5100
26     O26    -9.5538    0.0328   -4.3555 O.2      1 ZINC000026674761   -0.4900
27     N27   -11.5047    1.0331   -4.6951 N.am     1 ZINC000026674761   -0.7200
28     C28   -11.9072    0.0161   -5.6697 C.3      1 ZINC000026674761    0.1500
29     C29   -12.5217   -1.1780   -4.9366 C.3      1 ZINC000026674761   -0.1200
30     C30   -12.9420   -2.2401   -5.9545 C.3      1 ZINC000026674761   -0.1200
31     C31   -13.9737   -1.6457   -6.9154 C.3      1 ZINC000026674761   -0.1100
32     C32   -13.3591   -0.4516   -7.6485 C.3      1 ZINC000026674761   -0.1200
33     C33   -12.9388    0.6105   -6.6306 C.3      1 ZINC000026674761   -0.1200
34     C34   -10.8696    2.0116   -1.9453 C.ar     1 ZINC000026674761   -0.1400
35     C35   -10.9645    0.9197   -1.1024 C.ar     1 ZINC000026674761   -0.0800
36     C36   -11.8631    0.9316   -0.0532 C.ar     1 ZINC000026674761   -0.1500
37     C37   -12.6703    2.0406    0.1547 C.ar     1 ZINC000026674761    0.1300
38     O38   -13.5547    2.0550    1.1864 O.3      1 ZINC000026674761   -0.2800
39     C39   -14.3533    3.2300    1.3400 C.3      1 ZINC000026674761   -0.5400
40     P40   -15.6557    3.2506    0.0645 P.3      1 ZINC000026674761    2.2100
41     O41   -16.5472    1.9983    0.2186 O.2      1 ZINC000026674761   -1.0700
42     O42   -15.0045    3.2501   -1.3365 O.3      1 ZINC000026674761   -1.0500
43     O43   -16.5554    4.5745    0.2376 O.3      1 ZINC000026674761   -0.9000
44     C44   -12.5727    3.1352   -0.6922 C.ar     1 ZINC000026674761   -0.1300
45     C45   -11.6692    3.1202   -1.7371 C.ar     1 ZINC000026674761   -0.0700
46     C46    -8.8781    1.8758   -5.4882 C.ar     1 ZINC000026674761   -0.0700
47     C47    -9.0812    1.6491   -6.8312 C.ar     1 ZINC000026674761   -0.1800
48     C48    -7.7075   -1.5649   -9.3366 C.2      1 ZINC000026674761    0.5000
49     O49    -6.9522   -2.4258   -9.7548 O.co2    1 ZINC000026674761   -0.6900
50     O50    -8.7188   -1.8817   -8.7337 O.co2    1 ZINC000026674761   -0.6900
51     H51    -6.3957    0.1110   -9.1791 H        1 ZINC000026674761    0.0600
52     H52    -6.2780   -0.1225   -7.5225 H        1 ZINC000026674761    0.1300
53     H53    -5.8992    0.2821   -5.1288 H        1 ZINC000026674761    0.1100
54     H54    -9.2498    0.9683   -0.7368 H        1 ZINC000026674761    0.1200
55     H55    -7.5059    0.7507   -1.0190 H        1 ZINC000026674761    0.0900
56     H56    -5.9525    2.4846   -0.5176 H        1 ZINC000026674761    0.1400
57     H57    -5.4911    4.6060    0.6422 H        1 ZINC000026674761    0.1300
58     H58    -9.2256    7.4089    2.1765 H        1 ZINC000026674761    0.1200
59     H59    -8.9158    7.4737    0.4121 H        1 ZINC000026674761    0.0800
60     H60   -10.1427    3.2258   -0.2357 H        1 ZINC000026674761    0.1500
61     H61   -12.1035    1.7664   -4.4840 H        1 ZINC000026674761    0.4000
62     H62   -11.0339   -0.3135   -6.2326 H        1 ZINC000026674761    0.1000
63     H63   -11.7868   -1.6015   -4.2520 H        1 ZINC000026674761    0.0600
64     H64   -13.3950   -0.8485   -4.3737 H        1 ZINC000026674761    0.0600
65     H65   -12.0687   -2.5696   -6.5174 H        1 ZINC000026674761    0.0700
66     H66   -13.3799   -3.0908   -5.4322 H        1 ZINC000026674761    0.0500
67     H67   -14.2731   -2.4023   -7.6405 H        1 ZINC000026674761    0.0600
68     H68   -14.8470   -1.3161   -6.3525 H        1 ZINC000026674761    0.0600
69     H69   -12.4858   -0.7811   -8.2114 H        1 ZINC000026674761    0.0800
70     H70   -14.0940   -0.0281   -8.3330 H        1 ZINC000026674761    0.0600
71     H71   -13.8121    0.9400   -6.0677 H        1 ZINC000026674761    0.0600
72     H72   -12.5010    1.4612   -7.1529 H        1 ZINC000026674761    0.0700
73     H73   -10.3360    0.0566   -1.2646 H        1 ZINC000026674761    0.1300
74     H74   -11.9374    0.0782    0.6045 H        1 ZINC000026674761    0.1300
75     H75   -14.8127    3.2304    2.3284 H        1 ZINC000026674761    0.1000
76     H76   -13.7243    4.1136    1.2313 H        1 ZINC000026674761    0.0600
77     H77   -17.2701    4.6517   -0.4092 H        1 ZINC000026674761    0.4100
78     H78   -13.2002    3.9996   -0.5326 H        1 ZINC000026674761    0.1300
79     H79   -11.5926    3.9722   -2.3964 H        1 ZINC000026674761    0.1300
80     H80    -9.6053    2.4350   -4.9182 H        1 ZINC000026674761    0.1300
81     H81    -9.9700    2.0278   -7.3137 H        1 ZINC000026674761    0.1200
@<TRIPOS>BOND
1     1     2     ar
2     2     3     ar
3     2     4     1
4     4     5     1
5     4     48    1
6     4     51    1
7     5     6     1
8     6     47    ar
9     6     7     ar
10    7     8     ar
11    7     52    1
12    8     9     ar
13    8     53    1
14    9     10    1
15    9     46    ar
16    10    11    2
17    10    12    am
18    12    13    1
19    12    23    1
20    13    14    1
21    13    54    1
22    13    55    1
23    14    22    ar
24    14    15    ar
25    15    16    ar
26    15    56    1
27    16    17    ar
28    16    57    1
29    17    21    ar
30    17    18    1
31    18    19    1
32    19    20    1
33    19    58    1
34    19    59    1
35    20    21    1
36    21    22    ar
37    22    60    1
38    23    24    1
39    23    25    1
40    23    34    1
41    25    26    2
42    25    27    am
43    27    28    1
44    27    61    1
45    28    33    1
46    28    29    1
47    28    62    1
48    29    30    1
49    29    63    1
50    29    64    1
51    30    31    1
52    30    65    1
53    30    66    1
54    31    32    1
55    31    67    1
56    31    68    1
57    32    33    1
58    32    69    1
59    32    70    1
60    33    71    1
61    33    72    1
62    34    45    ar
63    34    35    ar
64    35    36    ar
65    35    73    1
66    36    37    ar
67    36    74    1
68    37    38    1
69    37    44    ar
70    38    39    1
71    39    40    1
72    39    75    1
73    39    76    1
74    40    41    2
75    40    42    1
76    40    43    1
77    43    77    1
78    44    45    ar
79    44    78    1
80    45    79    1
81    46    47    ar
82    46    80    1
83    47    81    1
84    48    49    ar
85    48    50    ar
@<TRIPOS>SUBSTRUCTURE
1   ZINC000026674761 1     RESIDUE    1   A     ZIN   1


@<TRIPOS>MOLECULE
O=C(NC1CCCCC1)C(N(CC2=CC(OCO3)=C3C=C2)C(C4=CC=C(OC(C(O)=O)C(O)=O)C=C4)=O)C5=CC=C(OC(C(O)=O)C(O)=O)C=C5
81    85    1     0     0
SMALL
USER_CHARGES
@<TRIPOS>ATOM
1      O1      7.7352    4.1173    6.7541 O.co2    1 ZINC000026735751   -0.6900
2      C2      6.7992    4.5171    7.4253 C.2      1 ZINC000026735751    0.5000
3      O3      6.1345    3.7284    8.0754 O.co2    1 ZINC000026735751   -0.7000
4      C4      6.4676    5.9869    7.4562 C.3      1 ZINC000026735751   -0.0500
5      O5      5.2716    6.1895    8.2115 O.3      1 ZINC000026735751   -0.2600
6      C6      4.1000    6.1715    7.5268 C.ar     1 ZINC000026735751    0.2000
7      C7      4.0848    5.7949    6.1889 C.ar     1 ZINC000026735751   -0.2200
8      C8      2.8981    5.7753    5.4907 C.ar     1 ZINC000026735751   -0.0200
9      C9      1.7080    6.1341    6.1291 C.ar     1 ZINC000026735751   -0.1700
10     C10     0.4337    6.1140    5.3845 C.2      1 ZINC000026735751    0.5900
11     O11     0.2521    5.2864    4.5126 O.2      1 ZINC000026735751   -0.5400
12     N12    -0.5285    7.0131    5.6712 N.am     1 ZINC000026735751   -0.5900
13     C13    -1.5577    7.3268    4.6769 C.3      1 ZINC000026735751    0.1300
14     C14    -2.7445    6.4204    4.8792 C.ar     1 ZINC000026735751   -0.0800
15     C15    -2.8600    5.2596    4.1380 C.ar     1 ZINC000026735751   -0.0800
16     C16    -3.9472    4.4247    4.3201 C.ar     1 ZINC000026735751   -0.1100
17     C17    -4.9240    4.7506    5.2463 C.ar     1 ZINC000026735751    0.0200
18     O18    -6.0741    4.1126    5.6116 O.3      1 ZINC000026735751   -0.3200
19     C19    -6.4508    4.6922    6.8746 C.3      1 ZINC000026735751    0.2100
20     O20    -5.8848    6.0152    6.8264 O.3      1 ZINC000026735751   -0.3000
21     C21    -4.8076    5.9206    5.9935 C.ar     1 ZINC000026735751    0.0300
22     C22    -3.7128    6.7490    5.8102 C.ar     1 ZINC000026735751   -0.0900
23     C23    -0.5453    7.6767    6.9772 C.3      1 ZINC000026735751    0.1800
24     H24    -0.6451    6.9286    7.7636 H        1 ZINC000026735751    0.1000
25     C25     0.7400    8.4395    7.1696 C.2      1 ZINC000026735751    0.5100
26     O26     1.5867    8.4298    6.3014 O.2      1 ZINC000026735751   -0.5000
27     N27     0.9486    9.1325    8.3066 N.am     1 ZINC000026735751   -0.7200
28     C28     2.1981    9.8741    8.4937 C.3      1 ZINC000026735751    0.1500
29     C29     2.0730   11.2555    7.8479 C.3      1 ZINC000026735751   -0.1300
30     C30     3.3779   12.0299    8.0432 C.3      1 ZINC000026735751   -0.1200
31     C31     3.6571   12.1897    9.5390 C.3      1 ZINC000026735751   -0.1200
32     C32     3.7823   10.8083   10.1849 C.3      1 ZINC000026735751   -0.1200
33     C33     2.4773   10.0338    9.9895 C.3      1 ZINC000026735751   -0.1200
34     C34    -1.7101    8.6309    7.0409 C.ar     1 ZINC000026735751   -0.1800
35     C35    -1.8802    9.5794    6.0494 C.ar     1 ZINC000026735751   -0.0600
36     C36    -2.9471   10.4552    6.1054 C.ar     1 ZINC000026735751   -0.2100
37     C37    -3.8485   10.3821    7.1575 C.ar     1 ZINC000026735751    0.1900
38     O38    -4.8991   11.2422    7.2146 O.3      1 ZINC000026735751   -0.2600
39     C39    -5.0883   12.1105    6.0956 C.3      1 ZINC000026735751   -0.0500
40     C40    -6.5353   12.5245    6.0200 C.2      1 ZINC000026735751    0.5200
41     O41    -7.3120   12.1890    6.8979 O.co2    1 ZINC000026735751   -0.7000
42     O42    -6.9293   13.1949    5.0810 O.co2    1 ZINC000026735751   -0.6800
43     C43    -4.2235   13.3341    6.2573 C.2      1 ZINC000026735751    0.5000
44     O44    -4.1664   14.1625    5.3645 O.co2    1 ZINC000026735751   -0.6900
45     O45    -3.5810   13.4956    7.2808 O.co2    1 ZINC000026735751   -0.6900
46     C46    -3.6758    9.4291    8.1508 C.ar     1 ZINC000026735751   -0.1700
47     C47    -2.6100    8.5525    8.0876 C.ar     1 ZINC000026735751   -0.0600
48     C48     1.7275    6.5117    7.4743 C.ar     1 ZINC000026735751   -0.0700
49     C49     2.9176    6.5241    8.1669 C.ar     1 ZINC000026735751   -0.1800
50     C50     7.6014    6.7442    8.0980 C.2      1 ZINC000026735751    0.5200
51     O51     8.6940    6.7790    7.5581 O.co2    1 ZINC000026735751   -0.6800
52     O52     7.4261    7.3221    9.1572 O.co2    1 ZINC000026735751   -0.7000
53     H53     6.3200    6.3475    6.4383 H        1 ZINC000026735751    0.0600
54     H54     5.0050    5.5177    5.6963 H        1 ZINC000026735751    0.1300
55     H55     2.8872    5.4833    4.4510 H        1 ZINC000026735751    0.1200
56     H56    -1.8695    8.3649    4.7918 H        1 ZINC000026735751    0.1200
57     H57    -1.1531    7.1776    3.6758 H        1 ZINC000026735751    0.0900
58     H58    -2.0997    5.0043    3.4147 H        1 ZINC000026735751    0.1400
59     H59    -4.0348    3.5182    3.7395 H        1 ZINC000026735751    0.1300
60     H60    -7.5359    4.7429    6.9643 H        1 ZINC000026735751    0.1200
61     H61    -6.0236    4.1227    7.7000 H        1 ZINC000026735751    0.0800
62     H62    -3.6170    7.6537    6.3922 H        1 ZINC000026735751    0.1500
63     H63     0.2714    9.1403    9.0010 H        1 ZINC000026735751    0.4000
64     H64     3.0181    9.3279    8.0273 H        1 ZINC000026735751    0.1000
65     H65     1.8740   11.1417    6.7822 H        1 ZINC000026735751    0.0700
66     H66     1.2530   11.8016    8.3142 H        1 ZINC000026735751    0.0600
67     H67     4.1979   11.4838    7.5769 H        1 ZINC000026735751    0.0600
68     H68     3.2888   13.0140    7.5832 H        1 ZINC000026735751    0.0600
69     H69     4.5868   12.7414    9.6782 H        1 ZINC000026735751    0.0600
70     H70     2.8372   12.7358   10.0054 H        1 ZINC000026735751    0.0600
71     H71     4.6022   10.2621    9.7185 H        1 ZINC000026735751    0.0800
72     H72     3.9812   10.9221   11.2505 H        1 ZINC000026735751    0.0600
73     H73     1.6574   10.5800   10.4558 H        1 ZINC000026735751    0.0600
74     H74     2.5665    9.0497   10.4496 H        1 ZINC000026735751    0.0700
75     H75    -1.1782    9.6359    5.2306 H        1 ZINC000026735751    0.1200
76     H76    -3.0791   11.1964    5.3311 H        1 ZINC000026735751    0.1300
77     H77    -4.8114   11.5884    5.1797 H        1 ZINC000026735751    0.0600
78     H78    -4.3760    9.3704    8.9710 H        1 ZINC000026735751    0.1300
79     H79    -2.4754    7.8102    8.8605 H        1 ZINC000026735751    0.1200
80     H80     0.8098    6.7897    7.9712 H        1 ZINC000026735751    0.1300
81     H81     2.9334    6.8154    9.2067 H        1 ZINC000026735751    0.1200
@<TRIPOS>BOND
1     1     2     ar
2     2     3     ar
3     2     4     1
4     4     5     1
5     4     50    1
6     4     53    1
7     5     6     1
8     6     49    ar
9     6     7     ar
10    7     8     ar
11    7     54    1
12    8     9     ar
13    8     55    1
14    9     10    1
15    9     48    ar
16    10    11    2
17    10    12    am
18    12    13    1
19    12    23    1
20    13    14    1
21    13    56    1
22    13    57    1
23    14    22    ar
24    14    15    ar
25    15    16    ar
26    15    58    1
27    16    17    ar
28    16    59    1
29    17    21    ar
30    17    18    1
31    18    19    1
32    19    20    1
33    19    60    1
34    19    61    1
35    20    21    1
36    21    22    ar
37    22    62    1
38    23    24    1
39    23    25    1
40    23    34    1
41    25    26    2
42    25    27    am
43    27    28    1
44    27    63    1
45    28    33    1
46    28    29    1
47    28    64    1
48    29    30    1
49    29    65    1
50    29    66    1
51    30    31    1
52    30    67    1
53    30    68    1
54    31    32    1
55    31    69    1
56    31    70    1
57    32    33    1
58    32    71    1
59    32    72    1
60    33    73    1
61    33    74    1
62    34    47    ar
63    34    35    ar
64    35    36    ar
65    35    75    1
66    36    37    ar
67    36    76    1
68    37    38    1
69    37    46    ar
70    38    39    1
71    39    40    1
72    39    43    1
73    39    77    1
74    40    41    ar
75    40    42    ar
76    43    44    ar
77    43    45    ar
78    46    47    ar
79    46    78    1
80    47    79    1
81    48    49    ar
82    48    80    1
83    49    81    1
84    50    51    ar
85    50    52    ar
@<TRIPOS>SUBSTRUCTURE
1   ZINC000026735751 1     RESIDUE    1   A     ZIN   1


@<TRIPOS>MOLECULE
O=C1C(O)=C(C2=CNC3=CC=C(Br)C=C32)C(C(O)=C1)=O
  27   29    0    0    0
SMALL
USER_CHARGES
NO_NAME
@<TRIPOS>ATOM
    1 O1        0.0021    -0.0041     0.0020 O.2    1 <0>      -0.5400
    2 C2       -0.0145     1.2207     0.0088 C.2    1 <0>       0.3400
    3 C3       -1.2276     1.9036     0.0298 C.2    1 <0>      -0.5400
    4 C4       -1.2679     3.2952     0.0448 C.2    1 <0>       0.3400
    5 O5       -2.3443     3.8794     0.0694 O.3    1 <0>      -0.5400
    6 C6        0.0051     4.0710     0.0311 C.2    1 <0>       0.3400
    7 O7        0.0441     5.2011    -0.3937 O.2    1 <0>      -0.4300
    8 C8        1.2498     3.3911     0.5701 C.3    1 <0>      -0.1100
    9 C9        1.1937     3.3311     2.0749 C.2    1 <0>      -0.1600
   10 C10       0.2580     2.7161     2.8151 C.2    1 <0>       0.0900
   11 N11       0.5367     2.8747     4.1453 N.pl3  1 <0>      -0.5900
   12 C12       1.6884     3.6148     4.2974 C.ar   1 <0>       0.1100
   13 C13       2.4012     4.0567     5.4068 C.ar   1 <0>      -0.1200
   14 C14       3.5488     4.7992     5.2354 C.ar   1 <0>      -0.0800
   15 C15       4.0053     5.1137     3.9620 C.ar   1 <0>      -0.1200
   16 Br16      5.5835     6.1345     3.7544 Br     1 <0>      -0.0600
   17 C17       3.3152     4.6859     2.8496 C.ar   1 <0>      -0.0300
   18 C18       2.1536     3.9275     3.0071 C.ar   1 <0>      -0.0900
   19 C19       1.2642     1.9871     0.0007 C.2    1 <0>       0.3400
   20 O20       2.2759     1.5059    -0.4512 O.2    1 <0>      -0.4300
   21 H21      -2.1520     1.3450     0.0343 H      1 <0>       0.1200
   22 H22       2.1391     3.9350     0.2518 H      1 <0>       0.1200
   23 H23      -0.5896     2.1763     2.4194 H      1 <0>       0.1900
   24 H24       0.0027     2.5189     4.8728 H      1 <0>       0.4200
   25 H25       2.0552     3.8182     6.4017 H      1 <0>       0.1300
   26 H26       4.0988     5.1405     6.0999 H      1 <0>       0.1300
   27 H27       3.6729     4.9322     1.8608 H      1 <0>       0.1300
@<TRIPOS>BOND
   1    1    2 2
   2    2   19 1
   3    2    3 1
   4    3    4 2
   5    3   21 1
   6    4    5 1
   7    4    6 1
   8    6    7 2
   9    6    8 1
  10    8    9 1
  11    8   19 1
  12    8   22 1
  13    9   18 1
  14    9   10 2
  15   10   11 1
  16   10   23 1
  17   11   12 1
  18   11   24 1
  19   12   18 ar
  20   12   13 ar
  21   13   14 ar
  22   13   25 1
  23   14   15 ar
  24   14   26 1
  25   15   16 1
  26   15   17 ar
  27   17   18 ar
  28   17   27 1
  29   19   20 2


@<TRIPOS>MOLECULE
O=C(C(N1)C2C(C=CC2)C3=C1C=CC(C(O)=O)=C3)O
30    32    1     0     0
SMALL
USER_CHARGES
@<TRIPOS>ATOM
1      O1      0.0021   -0.0041    0.0020 O.co2    1 ZINC000003684699   -0.7000
2      C2     -0.0145    1.2193    0.0087 C.2      1 ZINC000003684699    0.5300
3      O3      1.0366    1.8454    0.0021 O.co2    1 ZINC000003684699   -0.7100
4      C4     -1.2986    1.9376    0.0187 C.ar     1 ZINC000003684699   -0.2100
5      C5     -1.3184    3.3371    0.0206 C.ar     1 ZINC000003684699   -0.0400
6      C6     -2.5156    3.9935    0.0304 C.ar     1 ZINC000003684699   -0.2200
7      C7     -3.7097    3.2758    0.0390 C.ar     1 ZINC000003684699    0.2300
8      N8     -4.9172    3.9681    0.0544 N.pl3    1 ZINC000003684699   -0.7300
9      C9     -6.1209    3.2616    0.5042 C.3      1 ZINC000003684699    0.1000
10     H10    -6.0580    3.0800    1.5771 H        1 ZINC000003684699    0.0600
11     C11    -7.3383    4.0977    0.2044 C.2      1 ZINC000003684699    0.5000
12     O12    -7.2379    5.0926   -0.4932 O.co2    1 ZINC000003684699   -0.6900
13     O13    -8.4237    3.7793    0.6594 O.co2    1 ZINC000003684699   -0.6900
14     C14    -6.2183    1.9253   -0.2374 C.3      1 ZINC000003684699   -0.0800
15     H15    -6.4332    2.0490   -1.2988 H        1 ZINC000003684699    0.0800
16     C16    -7.2814    1.0613    0.5027 C.3      1 ZINC000003684699   -0.1000
17     C17    -6.5041    0.4616    1.6583 C.2      1 ZINC000003684699   -0.1700
18     C18    -5.2190    0.4685    1.4001 C.2      1 ZINC000003684699   -0.1500
19     C19    -4.9519    1.0866    0.0245 C.3      1 ZINC000003684699   -0.0100
20     H20    -4.8705    0.2960   -0.7215 H        1 ZINC000003684699    0.0800
21     C21    -3.7022    1.8849    0.0357 C.ar     1 ZINC000003684699   -0.1700
22     C22    -2.4993    1.2233    0.0206 C.ar     1 ZINC000003684699   -0.0400
23     H23    -0.3930    3.8940    0.0147 H        1 ZINC000003684699    0.1200
24     H24    -2.5371    5.0733    0.0317 H        1 ZINC000003684699    0.1100
25     H25    -4.9613    4.8958   -0.2253 H        1 ZINC000003684699    0.4000
26     H26    -8.0956    1.6858    0.8704 H        1 ZINC000003684699    0.1000
27     H27    -7.6626    0.2774   -0.1518 H        1 ZINC000003684699    0.0600
28     H28    -6.9472    0.0822    2.5672 H        1 ZINC000003684699    0.1200
29     H29    -4.4538    0.0926    2.0632 H        1 ZINC000003684699    0.1200
30     H30    -2.4811    0.1437    0.0020 H        1 ZINC000003684699    0.1200
@<TRIPOS>BOND
1     1     2     ar
2     2     3     ar
3     2     4     1
4     4     22    ar
5     4     5     ar
6     5     6     ar
7     5     23    1
8     6     7     ar
9     6     24    1
10    7     21    ar
11    7     8     1
12    8     9     1
13    8     25    1
14    9     10    1
15    9     11    1
16    9     14    1
17    11    12    ar
18    11    13    ar
19    14    15    1
20    14    19    1
21    14    16    1
22    16    17    1
23    16    26    1
24    16    27    1
25    17    18    2
26    17    28    1
27    18    19    1
28    18    29    1
29    19    20    1
30    19    21    1
31    21    22    ar
32    22    30    1
@<TRIPOS>SUBSTRUCTURE
1   ZINC000003684699 1     RESIDUE    1   A     ZIN   1


@<TRIPOS>MOLECULE
BrC1=C2C(C(C=CC=C3)=C3O2)=C(C4=CC(Br)=C(O[C@H](C(O)=O)CC5=CC=CC=C5)C(Br)=C4)C6=C1C=CC=C6
56    61    1     0     0
SMALL
USER_CHARGES
@<TRIPOS>ATOM
1      O1     -1.4193   -0.0682   -0.6741 O.co2    1 ZINC000003941517   -0.7000
2      C2     -0.9242    0.9953   -0.3419 C.2      1 ZINC000003941517    0.4700
3      O3      0.2851    1.1442   -0.3835 O.co2    1 ZINC000003941517   -0.6400
4      C4     -1.8076    2.1279    0.1142 C.3      1 ZINC000003941517    0.0400
5      H5     -2.6919    2.1775   -0.5212 H        1 ZINC000003941517    0.0600
6      C6     -2.2342    1.8899    1.5641 C.3      1 ZINC000003941517   -0.0600
7      C7     -3.2144    2.9560    1.9808 C.ar     1 ZINC000003941517   -0.0600
8      C8     -2.7578    4.1321    2.5456 C.ar     1 ZINC000003941517   -0.1000
9      C9     -3.6570    5.1100    2.9279 C.ar     1 ZINC000003941517   -0.1200
10     C10    -5.0128    4.9119    2.7448 C.ar     1 ZINC000003941517   -0.1300
11     C11    -5.4694    3.7361    2.1792 C.ar     1 ZINC000003941517   -0.1300
12     C12    -4.5699    2.7600    1.7930 C.ar     1 ZINC000003941517   -0.1200
13     O13    -1.0876    3.3590    0.0255 O.3      1 ZINC000003941517   -0.3000
14     C14    -1.0928    3.9915   -1.1774 C.ar     1 ZINC000003941517    0.1900
15     C15     0.0599    4.0161   -1.9523 C.ar     1 ZINC000003941517   -0.1000
16     Br16    1.6330    3.1697   -1.3320 Br       1 ZINC000003941517    0.0300
17     C17     0.0582    4.6567   -3.1739 C.ar     1 ZINC000003941517   -0.0500
18     C18    -1.1038    5.2808   -3.6312 C.ar     1 ZINC000003941517   -0.0800
19     C19    -1.1097    5.9683   -4.9407 C.ar     1 ZINC000003941517    0.0600
20     C20    -0.3024    7.1087   -5.1515 C.ar     1 ZINC000003941517   -0.0500
21     C21     0.5188    7.6132   -4.1309 C.ar     1 ZINC000003941517   -0.0800
22     C22     1.2860    8.7135   -4.3641 C.ar     1 ZINC000003941517   -0.1200
23     C23     1.2686    9.3495   -5.6042 C.ar     1 ZINC000003941517   -0.0900
24     C24     0.4848    8.8892   -6.6166 C.ar     1 ZINC000003941517   -0.1200
25     C25    -0.3213    7.7538   -6.4138 C.ar     1 ZINC000003941517    0.0100
26     C26    -1.1386    7.2585   -7.4423 C.ar     1 ZINC000003941517   -0.1000
27     Br27   -1.1625    8.1221   -9.1244 Br       1 ZINC000003941517   -0.0300
28     C28    -1.9243    6.1439   -7.2310 C.ar     1 ZINC000003941517    0.1300
29     C29    -1.9069    5.4946   -5.9802 C.ar     1 ZINC000003941517   -0.1000
30     C30    -2.8465    4.3644   -6.1054 C.ar     1 ZINC000003941517   -0.1200
31     C31    -3.3476    4.4279   -7.4131 C.ar     1 ZINC000003941517    0.0800
32     C32    -4.2702    3.4768   -7.8316 C.ar     1 ZINC000003941517   -0.1200
33     C33    -4.6832    2.4856   -6.9657 C.ar     1 ZINC000003941517   -0.0800
34     C34    -4.1866    2.4256   -5.6734 C.ar     1 ZINC000003941517   -0.1300
35     C35    -3.2692    3.3601   -5.2402 C.ar     1 ZINC000003941517   -0.0500
36     O36    -2.7820    5.4815   -8.0423 O.3      1 ZINC000003941517   -0.1900
37     C37    -2.2602    5.2541   -2.8497 C.ar     1 ZINC000003941517   -0.0500
38     C38    -2.2525    4.6070   -1.6315 C.ar     1 ZINC000003941517   -0.1400
39     Br39   -3.8183    4.5700   -0.5720 Br       1 ZINC000003941517   -0.0100
40     H40    -2.7050    0.9104    1.6483 H        1 ZINC000003941517    0.0900
41     H41    -1.3582    1.9287    2.2116 H        1 ZINC000003941517    0.0800
42     H42    -1.6986    4.2869    2.6886 H        1 ZINC000003941517    0.1200
43     H43    -3.3003    6.0286    3.3698 H        1 ZINC000003941517    0.1100
44     H44    -5.7153    5.6756    3.0441 H        1 ZINC000003941517    0.1100
45     H45    -6.5286    3.5812    2.0365 H        1 ZINC000003941517    0.1100
46     H46    -4.9266    1.8414    1.3511 H        1 ZINC000003941517    0.1200
47     H47     0.9548    4.6757   -3.7757 H        1 ZINC000003941517    0.1400
48     H48     0.5417    7.1308   -3.1649 H        1 ZINC000003941517    0.1400
49     H49     1.9168    9.0992   -3.5768 H        1 ZINC000003941517    0.1300
50     H50     1.8862   10.2210   -5.7638 H        1 ZINC000003941517    0.1300
51     H51     0.4819    9.3926   -7.5720 H        1 ZINC000003941517    0.1400
52     H52    -4.6648    3.5139   -8.8362 H        1 ZINC000003941517    0.1400
53     H53    -5.4006    1.7498   -7.2978 H        1 ZINC000003941517    0.1400
54     H54    -4.5180    1.6453   -5.0043 H        1 ZINC000003941517    0.1400
55     H55    -2.8818    3.3134   -4.2332 H        1 ZINC000003941517    0.1300
56     H56    -3.1609    5.7359   -3.2003 H        1 ZINC000003941517    0.1400
@<TRIPOS>BOND
1     1     2     ar
2     2     3     ar
3     2     4     1
4     4     5     1
5     4     6     1
6     4     13    1
7     6     7     1
8     6     40    1
9     6     41    1
10    7     12    ar
11    7     8     ar
12    8     9     ar
13    8     42    1
14    9     10    ar
15    9     43    1
16    10    11    ar
17    10    44    1
18    11    12    ar
19    11    45    1
20    12    46    1
21    13    14    1
22    14    38    ar
23    14    15    ar
24    15    16    1
25    15    17    ar
26    17    18    ar
27    17    47    1
28    18    19    1
29    18    37    ar
30    19    29    ar
31    19    20    ar
32    20    25    ar
33    20    21    ar
34    21    22    ar
35    21    48    1
36    22    23    ar
37    22    49    1
38    23    24    ar
39    23    50    1
40    24    25    ar
41    24    51    1
42    25    26    ar
43    26    27    1
44    26    28    ar
45    28    36    1
46    28    29    ar
47    29    30    1
48    30    35    ar
49    30    31    ar
50    31    32    ar
51    31    36    1
52    32    33    ar
53    32    52    1
54    33    34    ar
55    33    53    1
56    34    35    ar
57    34    54    1
58    35    55    1
59    37    38    ar
60    37    56    1
61    38    39    1
@<TRIPOS>SUBSTRUCTURE
1   ZINC000003941517 1     RESIDUE    1   A     ZIN   1


@<TRIPOS>MOLECULE
ClC1=CC(C2=NN=C(SCC(C3=CC(O)=C(O)C=C3)=O)N2CC=C)=CC=C1
43    45    1     0     0
SMALL
USER_CHARGES
@<TRIPOS>ATOM
1      C1     -0.8020    1.3482    0.2722 C.2      1 ZINC000001270317   -0.1300
2      C2     -0.5156    0.0735    0.1757 C.2      1 ZINC000001270317   -0.2000
3      C3     -1.6241   -0.9457    0.1183 C.3      1 ZINC000001270317    0.1200
4      N4     -1.4635   -1.7750   -1.0786 N.pl3    1 ZINC000001270317   -0.4500
5      C5     -1.9546   -1.5245   -2.3280 C.2      1 ZINC000001270317    0.1500
6      S6     -2.9130   -0.1280   -2.8137 S.3      1 ZINC000001270317    0.0700
7      C7     -3.1657   -0.5136   -4.5640 C.3      1 ZINC000001270317   -0.1700
8      C8     -3.9856    0.5763   -5.2052 C.2      1 ZINC000001270317    0.4200
9      O9     -4.3621    1.5208   -4.5438 O.2      1 ZINC000001270317   -0.4300
10     C10    -4.3287    0.4947   -6.6308 C.ar     1 ZINC000001270317   -0.1600
11     C11    -3.9002   -0.5971   -7.3946 C.ar     1 ZINC000001270317   -0.0600
12     C12    -4.2234   -0.6710   -8.7313 C.ar     1 ZINC000001270317   -0.1400
13     C13    -4.9740    0.3355   -9.3247 C.ar     1 ZINC000001270317    0.1200
14     O14    -5.2894    0.2570  -10.6427 O.3      1 ZINC000001270317   -0.4900
15     C15    -5.4054    1.4269   -8.5700 C.ar     1 ZINC000001270317    0.0700
16     O16    -6.1411    2.4098   -9.1552 O.3      1 ZINC000001270317   -0.4800
17     C17    -5.0908    1.5066   -7.2288 C.ar     1 ZINC000001270317   -0.0700
18     N18    -1.5789   -2.5192   -3.1008 N.2      1 ZINC000001270317   -0.2900
19     N19    -0.8915   -3.3683   -2.4241 N.2      1 ZINC000001270317   -0.2600
20     C20    -0.7815   -2.9657   -1.1796 C.2      1 ZINC000001270317    0.2200
21     C21    -0.0671   -3.6642   -0.0900 C.ar     1 ZINC000001270317    0.0000
22     C22     0.2385   -5.0207   -0.2092 C.ar     1 ZINC000001270317   -0.0700
23     C23     0.9055   -5.6674    0.8110 C.ar     1 ZINC000001270317   -0.1000
24     C24     1.2715   -4.9745    1.9508 C.ar     1 ZINC000001270317   -0.0900
25     C25     0.9711   -3.6283    2.0763 C.ar     1 ZINC000001270317   -0.0300
26     Cl26    1.4346   -2.7672    3.5106 Cl       1 ZINC000001270317   -0.0600
27     C27     0.3097   -2.9684    1.0599 C.ar     1 ZINC000001270317   -0.1100
28     H28    -0.0076    2.0786    0.3133 H        1 ZINC000001270317    0.1100
29     H29    -1.8328    1.6689    0.3062 H        1 ZINC000001270317    0.1100
30     H30     0.5151   -0.2469    0.1372 H        1 ZINC000001270317    0.1200
31     H31    -1.5835   -1.5770    1.0060 H        1 ZINC000001270317    0.1100
32     H32    -2.5861   -0.4345    0.0798 H        1 ZINC000001270317    0.1100
33     H33    -2.1995   -0.5832   -5.0638 H        1 ZINC000001270317    0.1400
34     H34    -3.6909   -1.4644   -4.6545 H        1 ZINC000001270317    0.1400
35     H35    -3.3160   -1.3812   -6.9359 H        1 ZINC000001270317    0.1400
36     H36    -3.8918   -1.5138   -9.3197 H        1 ZINC000001270317    0.1400
37     H37    -6.1231   -0.1994  -10.8211 H        1 ZINC000001270317    0.4000
38     H38    -7.0958    2.2599   -9.1208 H        1 ZINC000001270317    0.3900
39     H39    -5.4244    2.3507   -6.6436 H        1 ZINC000001270317    0.1500
40     H40    -0.0468   -5.5634   -1.0983 H        1 ZINC000001270317    0.1400
41     H41     1.1420   -6.7172    0.7196 H        1 ZINC000001270317    0.1400
42     H42     1.7934   -5.4854    2.7464 H        1 ZINC000001270317    0.1400
43     H43     0.0757   -1.9187    1.1584 H        1 ZINC000001270317    0.1400
@<TRIPOS>BOND
1     1     2     2
2     1     28    1
3     1     29    1
4     2     3     1
5     2     30    1
6     3     4     1
7     3     31    1
8     3     32    1
9     4     20    1
10    4     5     1
11    5     6     1
12    5     18    2
13    6     7     1
14    7     8     1
15    7     33    1
16    7     34    1
17    8     9     2
18    8     10    1
19    10    17    ar
20    10    11    ar
21    11    12    ar
22    11    35    1
23    12    13    ar
24    12    36    1
25    13    14    1
26    13    15    ar
27    14    37    1
28    15    16    1
29    15    17    ar
30    16    38    1
31    17    39    1
32    18    19    1
33    19    20    2
34    20    21    1
35    21    27    ar
36    21    22    ar
37    22    23    ar
38    22    40    1
39    23    24    ar
40    23    41    1
41    24    25    ar
42    24    42    1
43    25    26    1
44    25    27    ar
45    27    43    1
@<TRIPOS>SUBSTRUCTURE
1   ZINC000001270317 1     RESIDUE    1   A     ZIN   1


@<TRIPOS>MOLECULE
O=C(CSC1=NN=C(C2=CC=C(C)C=C2)N1C3=CC=C(Cl)C=C3)C4=CC(O)=C(O)C=C4
  49   52    0    0    0
SMALL
USER_CHARGES
NO_NAME
@<TRIPOS>ATOM
    1 C1       -0.2295     1.4957     0.0886 C.3    1 <0>      -0.1200
    2 C2       -0.1631    -0.0096     0.0633 C.ar   1 <0>      -0.0600
    3 C3        0.6149    -0.6804     0.9902 C.ar   1 <0>      -0.1200
    4 C4        0.6804    -2.0583     0.9723 C.ar   1 <0>      -0.1000
    5 C5       -0.0407    -2.7758     0.0164 C.ar   1 <0>      -0.0300
    6 C6        0.0244    -4.2522    -0.0084 C.2    1 <0>       0.2400
    7 N7       -0.3111    -5.0316    -1.0103 N.2    1 <0>      -0.2600
    8 N8       -0.1293    -6.2626    -0.6901 N.2    1 <0>      -0.2800
    9 C9        0.3340    -6.3473     0.5372 C.2    1 <0>       0.1500
   10 S10       0.7329    -7.8284     1.4043 S.3    1 <0>       0.0700
   11 C11       0.3204    -9.0545     0.1384 C.3    1 <0>      -0.1700
   12 C12       0.5896   -10.4378     0.6723 C.2    1 <0>       0.4200
   13 O13       1.0182   -10.5807     1.7979 O.2    1 <0>      -0.4300
   14 C14       0.3330   -11.6129    -0.1704 C.ar   1 <0>      -0.1600
   15 C15      -0.1562   -11.4502    -1.4717 C.ar   1 <0>      -0.0600
   16 C16      -0.3960   -12.5539    -2.2597 C.ar   1 <0>      -0.1400
   17 C17      -0.1537   -13.8295    -1.7669 C.ar   1 <0>       0.1200
   18 O18      -0.3921   -14.9135    -2.5485 O.3    1 <0>      -0.4900
   19 C19       0.3343   -14.0001    -0.4710 C.ar   1 <0>       0.0700
   20 O20       0.5710   -15.2511     0.0071 O.3    1 <0>      -0.4800
   21 C21       0.5825   -12.8997     0.3238 C.ar   1 <0>      -0.0700
   22 N22       0.4542    -5.0705     1.0134 N.pl3  1 <0>      -0.4200
   23 C23       0.9107    -4.6772     2.2794 C.ar   1 <0>       0.1000
   24 C24       0.0317    -4.1040     3.1883 C.ar   1 <0>      -0.0800
   25 C25       0.4837    -3.7174     4.4348 C.ar   1 <0>      -0.1000
   26 C26       1.8117    -3.9011     4.7781 C.ar   1 <0>      -0.0200
   27 Cl27      2.3768    -3.4147     6.3458 Cl     1 <0>      -0.0500
   28 C28       2.6898    -4.4723     3.8738 C.ar   1 <0>      -0.0900
   29 C29       2.2412    -4.8657     2.6282 C.ar   1 <0>      -0.0900
   30 C30      -0.8240    -2.0929    -0.9155 C.ar   1 <0>      -0.0700
   31 C31      -0.8848    -0.7150    -0.8833 C.ar   1 <0>      -0.1200
   32 H32      -1.0450     1.8125     0.7387 H      1 <0>       0.0800
   33 H33       0.7120     1.8946     0.4662 H      1 <0>       0.0700
   34 H34      -0.4035     1.8687    -0.9207 H      1 <0>       0.0700
   35 H35       1.1723    -0.1241     1.7292 H      1 <0>       0.1300
   36 H36       1.2886    -2.5806     1.6960 H      1 <0>       0.1200
   37 H37      -0.7338    -8.9652    -0.1241 H      1 <0>       0.1400
   38 H38       0.9313    -8.8817    -0.7476 H      1 <0>       0.1400
   39 H39      -0.3459   -10.4595    -1.8575 H      1 <0>       0.1400
   40 H40      -0.7738   -12.4271    -3.2635 H      1 <0>       0.1400
   41 H41       0.3666   -15.1887    -3.0812 H      1 <0>       0.4000
   42 H42       1.4670   -15.5735    -0.1612 H      1 <0>       0.3900
   43 H43       0.9607   -13.0305     1.3269 H      1 <0>       0.1500
   44 H44      -1.0047    -3.9601     2.9207 H      1 <0>       0.1400
   45 H45      -0.1996    -3.2711     5.1420 H      1 <0>       0.1500
   46 H46       3.7257    -4.6147     4.1440 H      1 <0>       0.1500
   47 H47       2.9268    -5.3115     1.9228 H      1 <0>       0.1400
   48 H48      -1.3841    -2.6421    -1.6579 H      1 <0>       0.1400
   49 H49      -1.4904    -0.1854    -1.6038 H      1 <0>       0.1300
@<TRIPOS>BOND
   1    1    2 1
   2    1   32 1
   3    1   33 1
   4    1   34 1
   5    2   31 ar
   6    2    3 ar
   7    3    4 ar
   8    3   35 1
   9    4    5 ar
  10    4   36 1
  11    5    6 1
  12    5   30 ar
  13    6   22 1
  14    6    7 2
  15    7    8 1
  16    8    9 2
  17    9   10 1
  18    9   22 1
  19   10   11 1
  20   11   12 1
  21   11   37 1
  22   11   38 1
  23   12   13 2
  24   12   14 1
  25   14   21 ar
  26   14   15 ar
  27   15   16 ar
  28   15   39 1
  29   16   17 ar
  30   16   40 1
  31   17   18 1
  32   17   19 ar
  33   18   41 1
  34   19   20 1
  35   19   21 ar
  36   20   42 1
  37   21   43 1
  38   22   23 1
  39   23   29 ar
  40   23   24 ar
  41   24   25 ar
  42   24   44 1
  43   25   26 ar
  44   25   45 1
  45   26   27 1
  46   26   28 ar
  47   28   29 ar
  48   28   46 1
  49   29   47 1
  50   30   31 ar
  51   30   48 1
  52   31   49 1


@<TRIPOS>MOLECULE
BrC1=CC=C2C(C(C(C(OCC)=O)=C(CNC(C)C)N3C)=C3C(C2=O)=O)=C1
49    51    1     0     0
SMALL
USER_CHARGES
@<TRIPOS>ATOM
1      C1     -0.0187    1.5258    0.0104 C.3      1 ZINC000002074909   -0.1600
2      C2      0.0021   -0.0041    0.0020 C.3      1 ZINC000002074909    0.0600
3      O3      0.6817   -0.4723   -1.1926 O.3      1 ZINC000002074909   -0.3500
4      C4      0.7866   -1.8063   -1.3537 C.2      1 ZINC000002074909    0.5200
5      O5      0.3228   -2.5576   -0.5186 O.2      1 ZINC000002074909   -0.4600
6      C6      1.4629   -2.3532   -2.5410 C.2      1 ZINC000002074909   -0.1300
7      C7      2.8088   -2.6541   -2.6559 C.2      1 ZINC000002074909    0.0200
8      C8      3.8415   -2.4747   -1.5732 C.3      1 ZINC000002074909    0.0600
9      N9      4.4261   -1.1306   -1.6718 N.4      1 ZINC000002074909   -0.5100
10     H10     4.8625   -1.0191   -2.5747 H        1 ZINC000002074909    0.4300
11     H11     3.6997   -0.4391   -1.5617 H        1 ZINC000002074909    0.4300
12     C12     5.4328   -0.9558   -0.6164 C.3      1 ZINC000002074909    0.0200
13     C13     6.1293    0.3947   -0.7947 C.3      1 ZINC000002074909   -0.1800
14     C14     4.7500   -1.0008    0.7521 C.3      1 ZINC000002074909   -0.1900
15     N15     3.0452   -3.1314   -3.8862 N.pl3    1 ZINC000002074909   -0.3700
16     C16     4.3522   -3.5616   -4.3890 C.3      1 ZINC000002074909    0.0400
17     C17     1.8665   -3.1560   -4.6069 C.2      1 ZINC000002074909   -0.0300
18     C18     0.8566   -2.6780   -3.7841 C.2      1 ZINC000002074909    0.0000
19     C19    -0.5377   -2.5766   -4.2601 C.ar     1 ZINC000002074909    0.0100
20     C20    -1.5351   -2.0945   -3.4199 C.ar     1 ZINC000002074909   -0.0800
21     C21    -2.8404   -2.0032   -3.8775 C.ar     1 ZINC000002074909   -0.0500
22     Br22   -4.1923   -1.3461   -2.7301 Br       1 ZINC000002074909   -0.0200
23     C23    -3.1625   -2.3885   -5.1671 C.ar     1 ZINC000002074909   -0.0800
24     C24    -2.1837   -2.8706   -6.0173 C.ar     1 ZINC000002074909   -0.0300
25     C25    -0.8677   -2.9680   -5.5716 C.ar     1 ZINC000002074909   -0.1400
26     C26     0.1935   -3.4787   -6.4602 C.2      1 ZINC000002074909    0.3800
27     O27    -0.0623   -3.8232   -7.5954 O.2      1 ZINC000002074909   -0.3600
28     C28     1.5890   -3.5678   -5.9327 C.2      1 ZINC000002074909    0.3900
29     O29     2.4841   -3.9847   -6.6421 O.2      1 ZINC000002074909   -0.3900
30     H30     1.0039    1.9031    0.0027 H        1 ZINC000002074909    0.0700
31     H31    -0.5459    1.8868   -0.8726 H        1 ZINC000002074909    0.0700
32     H32    -0.5289    1.8773    0.9072 H        1 ZINC000002074909    0.0900
33     H33     0.5293   -0.3651    0.8851 H        1 ZINC000002074909    0.0800
34     H34    -1.0205   -0.3814    0.0098 H        1 ZINC000002074909    0.0800
35     H35     3.3701   -2.5952   -0.5978 H        1 ZINC000002074909    0.1600
36     H36     4.6262   -3.2218   -1.6922 H        1 ZINC000002074909    0.1500
37     H37     6.1699   -1.7561   -0.6812 H        1 ZINC000002074909    0.1400
38     H38     5.3922    1.1951   -0.7299 H        1 ZINC000002074909    0.0800
39     H39     6.8763    0.5245   -0.0115 H        1 ZINC000002074909    0.1100
40     H40     6.6157    0.4268   -1.7696 H        1 ZINC000002074909    0.0800
41     H41     4.2538   -1.9629    0.8791 H        1 ZINC000002074909    0.0800
42     H42     5.4970   -0.8710    1.5352 H        1 ZINC000002074909    0.1100
43     H43     4.0129   -0.2004    0.8169 H        1 ZINC000002074909    0.0800
44     H44     4.4911   -4.6222   -4.1792 H        1 ZINC000002074909    0.1100
45     H45     4.4004   -3.3947   -5.4650 H        1 ZINC000002074909    0.1200
46     H46     5.1376   -2.9880   -3.8967 H        1 ZINC000002074909    0.0900
47     H47    -1.2932   -1.7918   -2.4118 H        1 ZINC000002074909    0.1300
48     H48    -4.1834   -2.3128   -5.5113 H        1 ZINC000002074909    0.1600
49     H49    -2.4389   -3.1706   -7.0229 H        1 ZINC000002074909    0.1600
@<TRIPOS>BOND
1     1     2     1
2     1     30    1
3     1     31    1
4     1     32    1
5     2     3     1
6     2     33    1
7     2     34    1
8     3     4     1
9     4     5     2
10    4     6     1
11    6     18    1
12    6     7     2
13    7     8     1
14    7     15    1
15    8     9     1
16    8     35    1
17    8     36    1
18    9     10    1
19    9     11    1
20    9     12    1
21    12    13    1
22    12    14    1
23    12    37    1
24    13    38    1
25    13    39    1
26    13    40    1
27    14    41    1
28    14    42    1
29    14    43    1
30    15    16    1
31    15    17    1
32    16    44    1
33    16    45    1
34    16    46    1
35    17    28    1
36    17    18    2
37    18    19    1
38    19    25    ar
39    19    20    ar
40    20    21    ar
41    20    47    1
42    21    22    1
43    21    23    ar
44    23    24    ar
45    23    48    1
46    24    25    ar
47    24    49    1
48    25    26    1
49    26    27    2
50    26    28    1
51    28    29    2
@<TRIPOS>SUBSTRUCTURE
1   ZINC000002074909 1     RESIDUE    1   A     ZIN   1


@<TRIPOS>MOLECULE
O=C(CSC1=NN=CN1)C2=CC=CC=C2
  24   25    0    0    0
SMALL
USER_CHARGES
NO_NAME
@<TRIPOS>ATOM
    1 O1        0.0021    -0.0041     0.0020 O.2    1 <0>      -0.4300
    2 C2       -0.0144     1.2083     0.0087 C.2    1 <0>       0.4200
    3 C3        1.2803     1.9795     0.0005 C.3    1 <0>      -0.1800
    4 S4        2.6749     0.8196    -0.0191 S.3    1 <0>       0.0900
    5 C5        4.0774     1.8862    -0.0267 C.2    1 <0>       0.2000
    6 N6        4.0401     3.1981    -0.0136 N.2    1 <0>      -0.3200
    7 N7        5.3727     3.6411    -0.0255 N.pl3  1 <0>      -0.4800
    8 C8        6.1407     2.5389    -0.0455 C.2    1 <0>       0.2800
    9 N9        5.3549     1.4924    -0.0411 N.2    1 <0>      -0.5200
   10 C10      -1.2987     1.9268     0.0187 C.ar   1 <0>      -0.1700
   11 C11      -1.3219     3.3251     0.0205 C.ar   1 <0>      -0.0700
   12 C12      -2.5293     3.9909     0.0294 C.ar   1 <0>      -0.1300
   13 C13      -3.7162     3.2791     0.0370 C.ar   1 <0>      -0.0800
   14 C14      -3.7016     1.8951     0.0352 C.ar   1 <0>      -0.1300
   15 C15      -2.5024     1.2147     0.0205 C.ar   1 <0>      -0.0600
   16 H16       1.3211     2.6117    -0.8866 H      1 <0>       0.1300
   17 H17       1.3381     2.6021     0.8933 H      1 <0>       0.1300
   18 H18       5.6785     4.5616    -0.0206 H      1 <0>       0.4400
   19 H19       7.2205     2.5198    -0.0588 H      1 <0>       0.2300
   20 H20      -0.3965     3.8820     0.0154 H      1 <0>       0.1300
   21 H21      -2.5489     5.0708     0.0309 H      1 <0>       0.1300
   22 H22      -4.6588     3.8063     0.0447 H      1 <0>       0.1300
   23 H23      -4.6320     1.3467     0.0415 H      1 <0>       0.1300
   24 H24      -2.4926     0.1348     0.0188 H      1 <0>       0.1400
@<TRIPOS>BOND
   1    1    2 2
   2    2    3 1
   3    2   10 1
   4    3    4 1
   5    3   16 1
   6    3   17 1
   7    4    5 1
   8    5    9 1
   9    5    6 2
  10    6    7 1
  11    7    8 1
  12    7   18 1
  13    8    9 2
  14    8   19 1
  15   10   15 ar
  16   10   11 ar
  17   11   12 ar
  18   11   20 1
  19   12   13 ar
  20   12   21 1
  21   13   14 ar
  22   13   22 1
  23   14   15 ar
  24   14   23 1
  25   15   24 1


@<TRIPOS>MOLECULE
O=C1C(C)=C(SCCO)C(C2=CC=CC=C21)=O
  29   30    0    0    0
SMALL
USER_CHARGES
NO_NAME
@<TRIPOS>ATOM
    1 C1       -0.2758     1.9067    -0.1389 C.3    1 <0>      -0.1300
    2 C2        0.0017     0.4334     0.0144 C.2    1 <0>      -0.0600
    3 C3       -1.0361    -0.4197     0.1966 C.2    1 <0>      -0.1600
    4 S4       -2.6826     0.2053     0.2508 S.3    1 <0>      -0.0700
    5 C5       -3.1049    -0.1702     1.9703 C.3    1 <0>      -0.1200
    6 C6       -4.4830     0.4096     2.2953 C.3    1 <0>       0.0900
    7 O7       -4.8164     0.1131     3.6529 O.3    1 <0>      -0.5700
    8 C8       -0.7955    -1.8775     0.3504 C.2    1 <0>       0.4300
    9 O9       -1.7243    -2.6423     0.5132 O.2    1 <0>      -0.4100
   10 C10       0.5938    -2.3821     0.3014 C.ar   1 <0>      -0.1200
   11 C11       0.8706    -3.7364     0.4397 C.ar   1 <0>      -0.0600
   12 C12       2.1839    -4.1776     0.3887 C.ar   1 <0>      -0.1000
   13 C13       3.2163    -3.2791     0.2017 C.ar   1 <0>      -0.1000
   14 C14       2.9543    -1.9243     0.0627 C.ar   1 <0>      -0.0600
   15 C15       1.6447    -1.4663     0.1108 C.ar   1 <0>      -0.1300
   16 C16       1.3377    -0.0265    -0.0411 C.2    1 <0>       0.4200
   17 O17       2.2431     0.7690    -0.2102 O.2    1 <0>      -0.4100
   18 H18       0.6661     2.4444    -0.2483 H      1 <0>       0.0900
   19 H19      -0.8923     2.0703    -1.0228 H      1 <0>       0.0900
   20 H20      -0.8018     2.2711     0.7435 H      1 <0>       0.1000
   21 H21      -3.1226    -1.2507     2.1125 H      1 <0>       0.1000
   22 H22      -2.3597     0.2712     2.6322 H      1 <0>       0.1000
   23 H23      -4.4653     1.4902     2.1532 H      1 <0>       0.0600
   24 H24      -5.2281    -0.0318     1.6335 H      1 <0>       0.0600
   25 H25      -5.6792     0.4514     3.9289 H      1 <0>       0.3900
   26 H26       0.0665    -4.4422     0.5864 H      1 <0>       0.1500
   27 H27       2.4011    -5.2301     0.4963 H      1 <0>       0.1400
   28 H28       4.2355    -3.6343     0.1637 H      1 <0>       0.1400
   29 H29       3.7667    -1.2277    -0.0826 H      1 <0>       0.1500
@<TRIPOS>BOND
   1    1    2 1
   2    1   18 1
   3    1   19 1
   4    1   20 1
   5    2   16 1
   6    2    3 2
   7    3    4 1
   8    3    8 1
   9    4    5 1
  10    5    6 1
  11    5   21 1
  12    5   22 1
  13    6    7 1
  14    6   23 1
  15    6   24 1
  16    7   25 1
  17    8    9 2
  18    8   10 1
  19   10   15 ar
  20   10   11 ar
  21   11   12 ar
  22   11   26 1
  23   12   13 ar
  24   12   27 1
  25   13   14 ar
  26   13   28 1
  27   14   15 ar
  28   14   29 1
  29   15   16 1
  30   16   17 2


@<TRIPOS>MOLECULE
O=C(CSC1=NC(COC)=CC(O)=N1)C2=CC3=CC=CC=C3O2
37    39    1     0     0
SMALL
USER_CHARGES
@<TRIPOS>ATOM
1      C1     -0.0173    1.4248    0.0099 C.3      1 ZINC000013465217    0.0300
2      O2      0.0021   -0.0041    0.0020 O.3      1 ZINC000013465217   -0.3800
3      C3      0.6734   -0.5824    1.1231 C.3      1 ZINC000013465217    0.1100
4      C4      0.6333   -2.0848    1.0124 C.2      1 ZINC000013465217    0.1900
5      C5      1.7928   -2.7873    0.8522 C.2      1 ZINC000013465217   -0.2700
6      C6      1.7306   -4.1882    0.7517 C.2      1 ZINC000013465217    0.5300
7      O7      2.7476   -4.8469    0.6083 O.2      1 ZINC000013465217   -0.5300
8      N8      0.5242   -4.7908    0.8172 N.am     1 ZINC000013465217   -0.6100
9      C9     -0.5994   -4.0382    0.9780 C.2      1 ZINC000013465217    0.3600
10     S10    -2.1696   -4.8332    1.0625 S.3      1 ZINC000013465217    0.0700
11     C11    -3.2418   -3.3899    1.2709 C.3      1 ZINC000013465217   -0.1600
12     C12    -4.6767   -3.8401    1.3691 C.2      1 ZINC000013465217    0.4500
13     O13    -4.9479   -5.0215    1.3045 O.2      1 ZINC000013465217   -0.4200
14     C14    -5.7096   -2.8838    1.5369 C.2      1 ZINC000013465217   -0.0700
15     C15    -7.0366   -3.1697    1.6431 C.2      1 ZINC000013465217   -0.0800
16     C16    -7.7124   -1.9333    1.7979 C.ar     1 ZINC000013465217   -0.1500
17     C17    -9.0567   -1.5777    1.9525 C.ar     1 ZINC000013465217   -0.0500
18     C18    -9.3996   -0.2619    2.0811 C.ar     1 ZINC000013465217   -0.1400
19     C19    -8.4243    0.7257    2.0597 C.ar     1 ZINC000013465217   -0.0700
20     C20    -7.0940    0.3977    1.9084 C.ar     1 ZINC000013465217   -0.1200
21     C21    -6.7207   -0.9341    1.7757 C.ar     1 ZINC000013465217    0.0800
22     O22    -5.5299   -1.5471    1.6221 O.3      1 ZINC000013465217   -0.1700
23     N23    -0.5316   -2.7245    1.0765 N.2      1 ZINC000013465217   -0.5300
24     H24     1.0053    1.8021    0.0021 H        1 ZINC000013465217    0.0500
25     H25    -0.5445    1.7859   -0.8732 H        1 ZINC000013465217    0.0900
26     H26    -0.5275    1.7763    0.9067 H        1 ZINC000013465217    0.0500
27     H27     1.7103   -0.2468    1.1385 H        1 ZINC000013465217    0.0800
28     H28     0.1775   -0.2725    2.0430 H        1 ZINC000013465217    0.0800
29     H29     2.7424   -2.2752    0.8030 H        1 ZINC000013465217    0.1600
30     H30     0.4579   -5.7562    0.7498 H        1 ZINC000013465217    0.4200
31     H31    -2.9643   -2.8596    2.1818 H        1 ZINC000013465217    0.1400
32     H32    -3.1273   -2.7255    0.4144 H        1 ZINC000013465217    0.1500
33     H33    -7.4879   -4.1505    1.6145 H        1 ZINC000013465217    0.1700
34     H34    -9.8206   -2.3410    1.9697 H        1 ZINC000013465217    0.1300
35     H35   -10.4374    0.0123    2.2001 H        1 ZINC000013465217    0.1400
36     H36    -8.7108    1.7620    2.1622 H        1 ZINC000013465217    0.1400
37     H37    -6.3435    1.1741    1.8927 H        1 ZINC000013465217    0.1400
@<TRIPOS>BOND
1     1     2     1
2     1     24    1
3     1     25    1
4     1     26    1
5     2     3     1
6     3     4     1
7     3     27    1
8     3     28    1
9     4     23    1
10    4     5     2
11    5     6     1
12    5     29    1
13    6     7     2
14    6     8     am
15    8     9     1
16    8     30    1
17    9     10    1
18    9     23    2
19    10    11    1
20    11    12    1
21    11    31    1
22    11    32    1
23    12    13    2
24    12    14    1
25    14    22    1
26    14    15    2
27    15    16    1
28    15    33    1
29    16    21    ar
30    16    17    ar
31    17    18    ar
32    17    34    1
33    18    19    ar
34    18    35    1
35    19    20    ar
36    19    36    1
37    20    21    ar
38    20    37    1
39    21    22    1
@<TRIPOS>SUBSTRUCTURE
1   ZINC000013465217 1     RESIDUE    1   A     ZIN   1


@<TRIPOS>MOLECULE
O=C(CSC1=NC(CCC)=CC(O)=N1)N(CC2)CCN2C3=CC=CC=C3
50    52    1     0     0
SMALL
USER_CHARGES
@<TRIPOS>ATOM
1      C1     -0.0187    1.5258    0.0104 C.3      1 ZINC000005075109   -0.1500
2      C2      0.0021   -0.0041    0.0020 C.3      1 ZINC000005075109   -0.1200
3      C3     -1.4333   -0.5336    0.0129 C.3      1 ZINC000005075109   -0.0700
4      C4     -1.4129   -2.0405    0.0046 C.2      1 ZINC000005075109    0.2000
5      C5     -1.5012   -2.7295    1.1798 C.2      1 ZINC000005075109   -0.2900
6      C6     -1.4805   -4.1348    1.1472 C.2      1 ZINC000005075109    0.5300
7      O7     -1.5579   -4.7818    2.1788 O.2      1 ZINC000005075109   -0.5300
8      N8     -1.3739   -4.7549   -0.0474 N.am     1 ZINC000005075109   -0.6200
9      C9     -1.2891   -4.0152   -1.1878 C.2      1 ZINC000005075109    0.3500
10     S10    -1.1503   -4.8330   -2.7423 S.3      1 ZINC000005075109    0.0900
11     C11    -1.0774   -3.4001   -3.8458 C.3      1 ZINC000005075109   -0.1400
12     C12    -0.9536   -3.8704   -5.2722 C.2      1 ZINC000005075109    0.5300
13     O13    -0.9181   -5.0574   -5.5184 O.2      1 ZINC000005075109   -0.5200
14     N14    -0.8823   -2.9719   -6.2742 N.am     1 ZINC000005075109   -0.6100
15     C15    -0.9175   -1.5278   -5.9972 C.3      1 ZINC000005075109    0.1100
16     C16     0.2686   -0.8669   -6.7075 C.3      1 ZINC000005075109    0.0300
17     N17     0.2449   -1.2269   -8.1315 N.3      1 ZINC000005075109   -0.4900
18     C18     1.2124   -0.5148   -8.8440 C.ar     1 ZINC000005075109    0.1100
19     C19     2.0389    0.3868   -8.1854 C.ar     1 ZINC000005075109   -0.1700
20     C20     2.9948    1.0889   -8.8928 C.ar     1 ZINC000005075109   -0.0900
21     C21     3.1295    0.8956  -10.2555 C.ar     1 ZINC000005075109   -0.1400
22     C22     2.3084   -0.0011  -10.9143 C.ar     1 ZINC000005075109   -0.0900
23     C23     1.3542   -0.7107  -10.2119 C.ar     1 ZINC000005075109   -0.1400
24     C24     0.4129   -2.6743   -8.3181 C.3      1 ZINC000005075109    0.0400
25     C25    -0.7611   -3.4093   -7.6732 C.3      1 ZINC000005075109    0.1200
26     N26    -1.3144   -2.6969   -1.1485 N.2      1 ZINC000005075109   -0.5400
27     H27     1.0039    1.9031    0.0027 H        1 ZINC000005075109    0.0600
28     H28    -0.5459    1.8868   -0.8726 H        1 ZINC000005075109    0.0600
29     H29    -0.5289    1.8773    0.9072 H        1 ZINC000005075109    0.0600
30     H30     0.5123   -0.3556   -0.8948 H        1 ZINC000005075109    0.0700
31     H31     0.5293   -0.3651    0.8851 H        1 ZINC000005075109    0.0600
32     H32    -1.9435   -0.1821    0.9097 H        1 ZINC000005075109    0.0900
33     H33    -1.9605   -0.1726   -0.8702 H        1 ZINC000005075109    0.0900
34     H34    -1.5851   -2.2035    2.1193 H        1 ZINC000005075109    0.1600
35     H35    -1.3574   -5.7237   -0.0933 H        1 ZINC000005075109    0.4200
36     H36    -1.9872   -2.8100   -3.7355 H        1 ZINC000005075109    0.1300
37     H37    -0.2134   -2.7873   -3.5890 H        1 ZINC000005075109    0.1300
38     H38    -1.8501   -1.1058   -6.3717 H        1 ZINC000005075109    0.0900
39     H39    -0.8412   -1.3591   -4.9230 H        1 ZINC000005075109    0.1000
40     H40     0.1966    0.2159   -6.6049 H        1 ZINC000005075109    0.1000
41     H41     1.1999   -1.2139   -6.2601 H        1 ZINC000005075109    0.0500
42     H42     1.9337    0.5387   -7.1213 H        1 ZINC000005075109    0.1300
43     H43     3.6377    1.7900   -8.3813 H        1 ZINC000005075109    0.1200
44     H44     3.8774    1.4465  -10.8065 H        1 ZINC000005075109    0.1200
45     H45     2.4162   -0.1497  -11.9786 H        1 ZINC000005075109    0.1300
46     H46     0.7135   -1.4111  -10.7270 H        1 ZINC000005075109    0.1300
47     H47     0.4455   -2.9024   -9.3834 H        1 ZINC000005075109    0.1000
48     H48     1.3422   -2.9962   -7.8482 H        1 ZINC000005075109    0.0500
49     H49    -0.5840   -4.4842   -7.7084 H        1 ZINC000005075109    0.1000
50     H50    -1.6809   -3.1693   -8.2066 H        1 ZINC000005075109    0.0800
@<TRIPOS>BOND
1     1     2     1
2     1     27    1
3     1     28    1
4     1     29    1
5     2     3     1
6     2     30    1
7     2     31    1
8     3     4     1
9     3     32    1
10    3     33    1
11    4     26    1
12    4     5     2
13    5     6     1
14    5     34    1
15    6     7     2
16    6     8     am
17    8     9     1
18    8     35    1
19    9     10    1
20    9     26    2
21    10    11    1
22    11    12    1
23    11    36    1
24    11    37    1
25    12    13    2
26    12    14    am
27    14    25    1
28    14    15    1
29    15    16    1
30    15    38    1
31    15    39    1
32    16    17    1
33    16    40    1
34    16    41    1
35    17    18    1
36    17    24    1
37    18    23    ar
38    18    19    ar
39    19    20    ar
40    19    42    1
41    20    21    ar
42    20    43    1
43    21    22    ar
44    21    44    1
45    22    23    ar
46    22    45    1
47    23    46    1
48    24    25    1
49    24    47    1
50    24    48    1
51    25    49    1
52    25    50    1
@<TRIPOS>SUBSTRUCTURE
1   ZINC000005075109 1     RESIDUE    1   A     ZIN   1


@<TRIPOS>MOLECULE
C1=CC(=C(C2=C1C(=C3C=CC(=O)C(=C3O2)O)CCC(=O)O)O)O
33    35    1     0     0
SMALL
USER_CHARGES
@<TRIPOS>ATOM
1      O1      0.0021   -0.0041    0.0020 O.co2    1 ZINC000003954336   -0.7000
2      C2     -0.0145    1.2150    0.0087 C.2      1 ZINC000003954336    0.5000
3      O3      1.0330    1.8389    0.0021 O.co2    1 ZINC000003954336   -0.7000
4      C4     -1.3296    1.9507    0.0190 C.3      1 ZINC000003954336   -0.1800
5      C5     -2.4790    0.9408    0.0189 C.3      1 ZINC000003954336   -0.0800
6      C6     -3.7941    1.6764    0.0292 C.2      1 ZINC000003954336    0.1600
7      C7     -4.4805    1.9366   -1.1671 C.2      1 ZINC000003954336   -0.2500
8      C8     -3.9503    1.5130   -2.4022 C.2      1 ZINC000003954336   -0.0100
9      C9     -4.6244    1.7702   -3.5543 C.2      1 ZINC000003954336   -0.2400
10     C10    -5.8458    2.4556   -3.5247 C.2      1 ZINC000003954336    0.3000
11     O11    -6.5016    2.7032   -4.6757 O.2      1 ZINC000003954336   -0.6600
12     C12    -6.3884    2.8830   -2.3141 C.2      1 ZINC000003954336   -0.0500
13     O13    -7.5764    3.5476   -2.2954 O.3      1 ZINC000003954336   -0.4800
14     C14    -5.7145    2.6294   -1.1282 C.2      1 ZINC000003954336    0.1700
15     O15    -6.2335    3.0390    0.0482 O.3      1 ZINC000003954336   -0.2000
16     C16    -5.5982    2.8046    1.2156 C.ar     1 ZINC000003954336    0.2000
17     C17    -6.1541    3.2363    2.4113 C.ar     1 ZINC000003954336   -0.0900
18     O18    -7.3437    3.8984    2.4112 O.3      1 ZINC000003954336   -0.4700
19     C19    -5.4916    2.9898    3.6125 C.ar     1 ZINC000003954336    0.3300
20     O20    -6.0330    3.4098    4.7729 O.3      1 ZINC000003954336   -0.6300
21     C21    -4.2676    2.3086    3.6230 C.ar     1 ZINC000003954336   -0.2400
22     C22    -3.7079    1.8787    2.4611 C.ar     1 ZINC000003954336    0.0000
23     C23    -4.3636    2.1121    1.2357 C.ar     1 ZINC000003954336   -0.2600
24     H24    -1.3917    2.5717    0.9126 H        1 ZINC000003954336    0.0700
25     H25    -1.4001    2.5813   -0.8673 H        1 ZINC000003954336    0.0600
26     H26    -2.4169    0.3198   -0.8748 H        1 ZINC000003954336    0.0900
27     H27    -2.4085    0.3101    0.9052 H        1 ZINC000003954336    0.0900
28     H28    -3.0088    0.9847   -2.4335 H        1 ZINC000003954336    0.1400
29     H29    -4.2153    1.4443   -4.4991 H        1 ZINC000003954336    0.1300
30     H30    -7.9689    3.6764   -3.1697 H        1 ZINC000003954336    0.3900
31     H31    -8.1153    3.3209    2.4898 H        1 ZINC000003954336    0.3600
32     H32    -3.7649    2.1239    4.5608 H        1 ZINC000003954336    0.1300
33     H33    -2.7638    1.3545    2.4776 H        1 ZINC000003954336    0.1400
@<TRIPOS>BOND
1     1     2     ar
2     2     3     ar
3     2     4     1
4     4     5     1
5     4     24    1
6     4     25    1
7     5     6     1
8     5     26    1
9     5     27    1
10    6     23    1
11    6     7     2
12    7     14    1
13    7     8     1
14    8     9     2
15    8     28    1
16    9     10    1
17    9     29    1
18    10    11    2
19    10    12    1
20    12    13    1
21    12    14    2
22    13    30    1
23    14    15    1
24    15    16    1
25    16    23    ar
26    16    17    ar
27    17    18    1
28    17    19    ar
29    18    31    1
30    19    20    1
31    19    21    ar
32    21    22    ar
33    21    32    1
34    22    23    ar
35    22    33    1
@<TRIPOS>SUBSTRUCTURE
1   ZINC000003954336 1     RESIDUE    1   A     ZIN   1


@<TRIPOS>MOLECULE
CCN(CC)CCOC1=CC=C(C=C1)NC2=NC=C3C=C(C(=O)N(C3=N2)C)C4=C(C=CC=C4Cl)Cl
63    66    1     0     0
SMALL
USER_CHARGES
@<TRIPOS>ATOM
1      C1     -0.1174    1.6074   -0.6952 C.3      1 ZINC000001486219   -0.1900
2      C2     -0.0830    0.0900   -0.5022 C.3      1 ZINC000001486219   -0.0200
3      N3     -1.4294   -0.3915   -0.1656 N.4      1 ZINC000001486219   -0.3900
4      H4     -1.7778    0.1158    0.6340 H        1 ZINC000001486219    0.4300
5      C5     -2.3260   -0.1781   -1.3095 C.3      1 ZINC000001486219   -0.0100
6      C6     -3.7570   -0.5447   -0.9112 C.3      1 ZINC000001486219   -0.1900
7      C7     -1.3719   -1.8248    0.1508 C.3      1 ZINC000001486219   -0.0100
8      C8     -0.5388   -2.0346    1.4168 C.3      1 ZINC000001486219    0.0300
9      O9     -1.2007   -1.4283    2.5287 O.3      1 ZINC000001486219   -0.3300
10     C10    -0.5884   -1.5243    3.7390 C.ar     1 ZINC000001486219    0.1000
11     C11     0.6268   -2.1838    3.8508 C.ar     1 ZINC000001486219   -0.1800
12     C12     1.2490   -2.2822    5.0796 C.ar     1 ZINC000001486219   -0.0700
13     C13     0.6581   -1.7203    6.2036 C.ar     1 ZINC000001486219    0.1400
14     N14     1.2885   -1.8192    7.4500 N.pl3    1 ZINC000001486219   -0.6300
15     C15     2.6675   -1.8051    7.5295 C.ar     1 ZINC000001486219    0.6000
16     N16     3.3700   -1.5839    6.4237 N.ar     1 ZINC000001486219   -0.5800
17     C17     4.6894   -1.5602    6.4458 C.ar     1 ZINC000001486219    0.2600
18     C18     5.3445   -1.7746    7.6677 C.ar     1 ZINC000001486219   -0.2700
19     C19     6.7553   -1.7607    7.7546 C.2      1 ZINC000001486219    0.0200
20     C20     7.3476   -1.9748    8.9703 C.2      1 ZINC000001486219   -0.1500
21     C21     8.8239   -1.9660    9.0945 C.ar     1 ZINC000001486219   -0.0200
22     C22     9.5484   -3.1466    8.9260 C.ar     1 ZINC000001486219   -0.0100
23     Cl23    8.7219   -4.6312    8.5702 Cl       1 ZINC000001486219   -0.0500
24     C24    10.9245   -3.1314    9.0426 C.ar     1 ZINC000001486219   -0.1100
25     C25    11.5846   -1.9493    9.3262 C.ar     1 ZINC000001486219   -0.0800
26     C26    10.8724   -0.7755    9.4948 C.ar     1 ZINC000001486219   -0.1000
27     C27     9.4964   -0.7758    9.3747 C.ar     1 ZINC000001486219   -0.0100
28     Cl28    8.6044    0.6983    9.5866 Cl       1 ZINC000001486219   -0.0500
29     C29     6.5086   -2.2123   10.1470 C.2      1 ZINC000001486219    0.5600
30     O30     7.0273   -2.4037   11.2324 O.2      1 ZINC000001486219   -0.4900
31     N31     5.1664   -2.2196   10.0352 N.am     1 ZINC000001486219   -0.5100
32     C32     4.3413   -2.4582   11.2220 C.3      1 ZINC000001486219    0.0700
33     C33     4.5640   -2.0064    8.8210 C.ar     1 ZINC000001486219    0.4700
34     N34     3.2407   -2.0072    8.7061 N.ar     1 ZINC000001486219   -0.5900
35     C35    -0.5583   -1.0598    6.0909 C.ar     1 ZINC000001486219   -0.1000
36     C36    -1.1767   -0.9578    4.8603 C.ar     1 ZINC000001486219   -0.1200
37     H37     0.8969    1.9779   -0.8434 H        1 ZINC000001486219    0.1100
38     H38    -0.7237    1.8490   -1.5682 H        1 ZINC000001486219    0.0800
39     H39    -0.5500    2.0763    0.1886 H        1 ZINC000001486219    0.0800
40     H40     0.2533   -0.3858   -1.4234 H        1 ZINC000001486219    0.1300
41     H41     0.6043   -0.1579    0.3066 H        1 ZINC000001486219    0.1300
42     H42    -2.2893    0.8692   -1.6095 H        1 ZINC000001486219    0.1300
43     H43    -2.0084   -0.8059   -2.1421 H        1 ZINC000001486219    0.1300
44     H44    -3.8153   -1.6142   -0.7092 H        1 ZINC000001486219    0.0800
45     H45    -4.0384    0.0100   -0.0161 H        1 ZINC000001486219    0.0800
46     H46    -4.4368   -0.2910   -1.7246 H        1 ZINC000001486219    0.1100
47     H47    -2.3817   -2.2017    0.3138 H        1 ZINC000001486219    0.1400
48     H48    -0.9132   -2.3621   -0.6792 H        1 ZINC000001486219    0.1500
49     H49    -0.4216   -3.1024    1.6019 H        1 ZINC000001486219    0.1100
50     H50     0.4426   -1.5789    1.2856 H        1 ZINC000001486219    0.0900
51     H51     1.0863   -2.6208    2.9765 H        1 ZINC000001486219    0.1300
52     H52     2.1948   -2.7963    5.1666 H        1 ZINC000001486219    0.1400
53     H53     0.7569   -1.8976    8.2575 H        1 ZINC000001486219    0.4300
54     H54     5.2529   -1.3801    5.5422 H        1 ZINC000001486219    0.1900
55     H55     7.3570   -1.5841    6.8753 H        1 ZINC000001486219    0.1500
56     H56    11.4865   -4.0444    8.9125 H        1 ZINC000001486219    0.1500
57     H57    12.6608   -1.9428    9.4166 H        1 ZINC000001486219    0.1500
58     H58    11.3937    0.1440    9.7163 H        1 ZINC000001486219    0.1500
59     H59     4.9855   -2.6062   12.0887 H        1 ZINC000001486219    0.1000
60     H60     3.6938   -1.5982   11.3933 H        1 ZINC000001486219    0.0800
61     H61     3.7305   -3.3476   11.0672 H        1 ZINC000001486219    0.0800
62     H62    -1.0185   -0.6225    6.9646 H        1 ZINC000001486219    0.1400
63     H63    -2.1225   -0.4439    4.7724 H        1 ZINC000001486219    0.1400
@<TRIPOS>BOND
1     1     2     1
2     1     37    1
3     1     38    1
4     1     39    1
5     2     3     1
6     2     40    1
7     2     41    1
8     3     4     1
9     3     5     1
10    3     7     1
11    5     6     1
12    5     42    1
13    5     43    1
14    6     44    1
15    6     45    1
16    6     46    1
17    7     8     1
18    7     47    1
19    7     48    1
20    8     9     1
21    8     49    1
22    8     50    1
23    9     10    1
24    10    36    ar
25    10    11    ar
26    11    12    ar
27    11    51    1
28    12    13    ar
29    12    52    1
30    13    14    1
31    13    35    ar
32    14    15    1
33    14    53    1
34    15    34    ar
35    15    16    ar
36    16    17    ar
37    17    18    ar
38    17    54    1
39    18    33    ar
40    18    19    1
41    19    20    2
42    19    55    1
43    20    21    1
44    20    29    1
45    21    27    ar
46    21    22    ar
47    22    23    1
48    22    24    ar
49    24    25    ar
50    24    56    1
51    25    26    ar
52    25    57    1
53    26    27    ar
54    26    58    1
55    27    28    1
56    29    30    2
57    29    31    am
58    31    32    1
59    31    33    1
60    32    59    1
61    32    60    1
62    32    61    1
63    33    34    ar
64    35    36    ar
65    35    62    1
66    36    63    1
@<TRIPOS>SUBSTRUCTURE
1   ZINC000001486219 1     RESIDUE    1   A     ZIN   1


@<TRIPOS>MOLECULE
CC1(CC2=CN=C(N=C2C3=C1C(=NN3C)C(=O)NC)NC4=CC=C(C=C4)N5CCN(CC5)C)C
67    71    1     0     0
SMALL
USER_CHARGES
@<TRIPOS>ATOM
1      C1      1.0328    1.2816    0.1852 C.3      1 ZINC000053119602    0.0900
2      N2      1.2207   -0.1608    0.0106 N.am     1 ZINC000053119602   -0.7200
3      C3      0.2474   -0.9038   -0.5525 C.2      1 ZINC000053119602    0.6100
4      O4     -0.7864   -0.3772   -0.9155 O.2      1 ZINC000053119602   -0.5200
5      C5      0.4369   -2.3585   -0.7287 C.2      1 ZINC000053119602    0.0000
6      N6      0.3685   -3.2816    0.2191 N.2      1 ZINC000053119602   -0.2400
7      N7      0.5844   -4.4545   -0.2752 N.pl3    1 ZINC000053119602   -0.2500
8      C8      0.5735   -5.7057    0.4869 C.3      1 ZINC000053119602    0.0900
9      C9      0.8208   -4.3543   -1.5975 C.2      1 ZINC000053119602    0.0300
10     C10     0.7156   -3.0191   -1.9253 C.2      1 ZINC000053119602   -0.1100
11     C11     0.8855   -2.5174   -3.3296 C.3      1 ZINC000053119602    0.0100
12     C12    -0.4646   -2.5495   -4.0487 C.3      1 ZINC000053119602   -0.1400
13     C13     1.4110   -1.0809   -3.2970 C.3      1 ZINC000053119602   -0.1500
14     C14     1.8811   -3.4058   -4.0766 C.3      1 ZINC000053119602   -0.0600
15     C15     1.6189   -4.8679   -3.8619 C.ar     1 ZINC000053119602   -0.2000
16     C16     1.8653   -5.7855   -4.8656 C.ar     1 ZINC000053119602    0.1900
17     N17     1.6500   -7.0713   -4.6315 N.ar     1 ZINC000053119602   -0.5600
18     C18     1.2077   -7.4947   -3.4560 C.ar     1 ZINC000053119602    0.5600
19     N19     1.0150   -8.8514   -3.2547 N.pl3    1 ZINC000053119602   -0.6400
20     C20     1.3949   -9.7673   -4.2444 C.ar     1 ZINC000053119602    0.1700
21     C21     2.4975   -9.5051   -5.0467 C.ar     1 ZINC000053119602   -0.0900
22     C22     2.8717  -10.4075   -6.0224 C.ar     1 ZINC000053119602   -0.1000
23     C23     2.1455  -11.5778   -6.2011 C.ar     1 ZINC000053119602    0.0600
24     N24     2.5250  -12.4927   -7.1897 N.3      1 ZINC000053119602   -0.4800
25     C25     2.5729  -11.8508   -8.5110 C.3      1 ZINC000053119602    0.0300
26     C26     3.0482  -12.8672   -9.5516 C.3      1 ZINC000053119602    0.0000
27     N27     2.1261  -14.0102   -9.5766 N.4      1 ZINC000053119602   -0.3900
28     H28     1.1978  -13.6883   -9.8063 H        1 ZINC000053119602    0.4200
29     C29     2.5728  -14.9773  -10.5881 C.3      1 ZINC000053119602   -0.0500
30     C30     2.1077  -14.6557   -8.2573 C.3      1 ZINC000053119602    0.0000
31     C31     1.6246  -13.6542   -7.2060 C.3      1 ZINC000053119602    0.0200
32     C32     1.0431  -11.8402   -5.3984 C.ar     1 ZINC000053119602   -0.1400
33     C33     0.6721  -10.9401   -4.4192 C.ar     1 ZINC000053119602   -0.1200
34     N34     0.9456   -6.6495   -2.4676 N.ar     1 ZINC000053119602   -0.5500
35     C35     1.1199   -5.3502   -2.6408 C.ar     1 ZINC000053119602    0.3000
36     H36     0.8749    1.7478   -0.7873 H        1 ZINC000053119602    0.0700
37     H37     0.1645    1.4607    0.8193 H        1 ZINC000053119602    0.0600
38     H38     1.9192    1.7094    0.6536 H        1 ZINC000053119602    0.0800
39     H39     2.0456   -0.5810    0.3002 H        1 ZINC000053119602    0.4100
40     H40    -0.4341   -6.1215    0.4882 H        1 ZINC000053119602    0.0900
41     H41     1.2595   -6.4171    0.0271 H        1 ZINC000053119602    0.1000
42     H42     0.8869   -5.5094    1.5122 H        1 ZINC000053119602    0.1000
43     H43    -1.1737   -1.9136   -3.5187 H        1 ZINC000053119602    0.0700
44     H44    -0.3418   -2.1852   -5.0686 H        1 ZINC000053119602    0.0700
45     H45    -0.8402   -3.5725   -4.0710 H        1 ZINC000053119602    0.0500
46     H46     2.3142   -1.0381   -2.6883 H        1 ZINC000053119602    0.0600
47     H47     1.6409   -0.7549   -4.3114 H        1 ZINC000053119602    0.0700
48     H48     0.6524   -0.4261   -2.8681 H        1 ZINC000053119602    0.0700
49     H49     1.8167   -3.1887   -5.1428 H        1 ZINC000053119602    0.0900
50     H50     2.8887   -3.1738   -3.7316 H        1 ZINC000053119602    0.0900
51     H51     2.2284   -5.4582   -5.8287 H        1 ZINC000053119602    0.1800
52     H52     0.6170   -9.1674   -2.4285 H        1 ZINC000053119602    0.4300
53     H53     3.0622   -8.5950   -4.9077 H        1 ZINC000053119602    0.1400
54     H54     3.7288  -10.2032   -6.6468 H        1 ZINC000053119602    0.1300
55     H55     1.5782  -11.4946   -8.7785 H        1 ZINC000053119602    0.0700
56     H56     3.2653  -11.0095   -8.4817 H        1 ZINC000053119602    0.1300
57     H57     3.0709  -12.3970  -10.5347 H        1 ZINC000053119602    0.1400
58     H58     4.0486  -13.2130   -9.2912 H        1 ZINC000053119602    0.1400
59     H59     3.5758  -15.3249  -10.3405 H        1 ZINC000053119602    0.1200
60     H60     1.8887  -15.8257  -10.6069 H        1 ZINC000053119602    0.1200
61     H61     2.5855  -14.4991  -11.5675 H        1 ZINC000053119602    0.1200
62     H62     1.4330  -15.5115   -8.2810 H        1 ZINC000053119602    0.1400
63     H63     3.1128  -14.9924   -8.0036 H        1 ZINC000053119602    0.1400
64     H64     1.6250  -14.1285   -6.2246 H        1 ZINC000053119602    0.1300
65     H65     0.6142  -13.3277   -7.4520 H        1 ZINC000053119602    0.0700
66     H66     0.4783  -12.7502   -5.5373 H        1 ZINC000053119602    0.1300
67     H67    -0.1850  -11.1443   -3.7947 H        1 ZINC000053119602    0.1300
@<TRIPOS>BOND
1     1     2     1
2     1     36    1
3     1     37    1
4     1     38    1
5     2     3     am
6     2     39    1
7     3     4     2
8     3     5     1
9     5     10    1
10    5     6     2
11    6     7     1
12    7     8     1
13    7     9     1
14    8     40    1
15    8     41    1
16    8     42    1
17    9     35    1
18    9     10    2
19    10    11    1
20    11    12    1
21    11    13    1
22    11    14    1
23    12    43    1
24    12    44    1
25    12    45    1
26    13    46    1
27    13    47    1
28    13    48    1
29    14    15    1
30    14    49    1
31    14    50    1
32    15    35    ar
33    15    16    ar
34    16    17    ar
35    16    51    1
36    17    18    ar
37    18    19    1
38    18    34    ar
39    19    20    1
40    19    52    1
41    20    33    ar
42    20    21    ar
43    21    22    ar
44    21    53    1
45    22    23    ar
46    22    54    1
47    23    24    1
48    23    32    ar
49    24    31    1
50    24    25    1
51    25    26    1
52    25    55    1
53    25    56    1
54    26    27    1
55    26    57    1
56    26    58    1
57    27    28    1
58    27    29    1
59    27    30    1
60    29    59    1
61    29    60    1
62    29    61    1
63    30    31    1
64    30    62    1
65    30    63    1
66    31    64    1
67    31    65    1
68    32    33    ar
69    32    66    1
70    33    67    1
71    34    35    ar
@<TRIPOS>SUBSTRUCTURE
1   ZINC000053119602 1     RESIDUE    1   A     ZIN   1


@<TRIPOS>MOLECULE
CN1CCN(CC1)CCCOC2=C(C=C3C(=C2)N=CC(=C3NC4=CC(=C(C=C4Cl)Cl)OC)C#N)OC
66    69    1     0     0
SMALL
USER_CHARGES
@<TRIPOS>ATOM
1      C1     -1.1463   -2.9635    3.1278 C.3      1 ZINC000022448983    0.0200
2      O2     -0.4267   -2.8595    1.8976 O.3      1 ZINC000022448983   -0.2900
3      C3      0.5694   -1.9360    1.8415 C.ar     1 ZINC000022448983    0.1700
4      C4      0.9237   -1.2289    2.9791 C.ar     1 ZINC000022448983   -0.1900
5      C5      1.9417   -0.2867    2.9191 C.ar     1 ZINC000022448983    0.1700
6      N6      2.3020    0.4284    4.0655 N.pl3    1 ZINC000022448983   -0.6700
7      C7      2.0695    1.7875    4.1328 C.ar     1 ZINC000022448983    0.3200
8      C8      2.8114    2.6128    5.0088 C.ar     1 ZINC000022448983   -0.1300
9      C9      3.8083    2.0759    5.8372 C.ar     1 ZINC000022448983   -0.1500
10     C10     4.5100    2.8952    6.6734 C.ar     1 ZINC000022448983    0.1100
11     O11     5.4757    2.3720    7.4752 O.3      1 ZINC000022448983   -0.3000
12     C12     5.6985    0.9632    7.3879 C.3      1 ZINC000022448983    0.0200
13     C13     4.2447    4.2714    6.7130 C.ar     1 ZINC000022448983    0.1600
14     O14     4.9553    5.0689    7.5524 O.3      1 ZINC000022448983   -0.3000
15     C15     4.6384    6.4623    7.5469 C.3      1 ZINC000022448983    0.0500
16     C16     5.5351    7.1932    8.5481 C.3      1 ZINC000022448983   -0.1300
17     C17     5.1958    8.6851    8.5422 C.3      1 ZINC000022448983    0.0600
18     N18     6.0568    9.3869    9.5035 N.3      1 ZINC000022448983   -0.5400
19     C19     6.1116    8.6679   10.7842 C.3      1 ZINC000022448983    0.0100
20     C20     7.0630    9.3976   11.7351 C.3      1 ZINC000022448983    0.0000
21     N21     6.5873   10.7713   11.9451 N.4      1 ZINC000022448983   -0.3900
22     H22     5.6574   10.7490   12.3360 H        1 ZINC000022448983    0.4200
23     C23     7.4911   11.4658   12.8719 C.3      1 ZINC000022448983   -0.0500
24     C24     6.5615   11.4840   10.6611 C.3      1 ZINC000022448983    0.0000
25     C25     5.6059   10.7718    9.7013 C.3      1 ZINC000022448983    0.0200
26     C26     3.2725    4.8232    5.9104 C.ar     1 ZINC000022448983   -0.1800
27     C27     2.5366    4.0013    5.0425 C.ar     1 ZINC000022448983    0.1900
28     N28     1.5858    4.5210    4.2527 N.ar     1 ZINC000022448983   -0.5000
29     C29     0.8835    3.7806    3.4332 C.ar     1 ZINC000022448983    0.2200
30     C30     1.0927    2.3964    3.3297 C.ar     1 ZINC000022448983   -0.1600
31     C31     0.3089    1.6119    2.4236 C.1      1 ZINC000022448983    0.2500
32     N32    -0.3128    0.9895    1.7049 N.1      1 ZINC000022448983   -0.4000
33     C33     2.6025   -0.0554    1.7183 C.ar     1 ZINC000022448983   -0.0700
34     Cl34    3.8760    1.1218    1.6414 Cl       1 ZINC000022448983   -0.0400
35     C35     2.2462   -0.7629    0.5853 C.ar     1 ZINC000022448983   -0.0500
36     C36     1.2360   -1.7053    0.6452 C.ar     1 ZINC000022448983   -0.0500
37     Cl37    0.7916   -2.5916   -0.7798 Cl       1 ZINC000022448983   -0.0300
38     H38    -1.5618   -1.9902    3.3891 H        1 ZINC000022448983    0.0600
39     H39    -1.9551   -3.6855    3.0157 H        1 ZINC000022448983    0.1100
40     H40    -0.4710   -3.2940    3.9170 H        1 ZINC000022448983    0.0600
41     H41     0.4086   -1.4101    3.9108 H        1 ZINC000022448983    0.1500
42     H42     2.7154   -0.0306    4.8134 H        1 ZINC000022448983    0.4200
43     H43     4.0197    1.0171    5.8136 H        1 ZINC000022448983    0.1400
44     H44     6.4926    0.6775    8.0778 H        1 ZINC000022448983    0.1100
45     H45     4.7823    0.4336    7.6491 H        1 ZINC000022448983    0.0600
46     H46     5.9905    0.7039    6.3703 H        1 ZINC000022448983    0.0600
47     H47     4.8022    6.8682    6.5486 H        1 ZINC000022448983    0.0700
48     H48     3.5940    6.5985    7.8276 H        1 ZINC000022448983    0.0700
49     H49     5.3713    6.7873    9.5464 H        1 ZINC000022448983    0.0800
50     H50     6.5795    7.0570    8.2674 H        1 ZINC000022448983    0.0900
51     H51     5.3596    9.0911    7.5440 H        1 ZINC000022448983    0.1000
52     H52     4.1514    8.8213    8.8230 H        1 ZINC000022448983    0.0500
53     H53     5.1148    8.6318   11.2240 H        1 ZINC000022448983    0.0600
54     H54     6.4725    7.6532   10.6165 H        1 ZINC000022448983    0.1300
55     H55     7.0941    8.8738   12.6905 H        1 ZINC000022448983    0.1400
56     H56     8.0626    9.4215   11.3012 H        1 ZINC000022448983    0.1400
57     H57     8.4959   11.4896   12.4501 H        1 ZINC000022448983    0.1200
58     H58     7.1383   12.4853   13.0279 H        1 ZINC000022448983    0.1200
59     H59     7.5097   10.9379   13.8253 H        1 ZINC000022448983    0.1200
60     H60     6.2208   12.5071   10.8202 H        1 ZINC000022448983    0.1400
61     H61     7.5637   11.4973   10.2327 H        1 ZINC000022448983    0.1400
62     H62     5.5979   11.2919    8.7434 H        1 ZINC000022448983    0.1300
63     H63     4.6009   10.7703   10.1231 H        1 ZINC000022448983    0.0600
64     H64     3.0761    5.8845    5.9486 H        1 ZINC000022448983    0.1500
65     H65     0.1287    4.2469    2.8174 H        1 ZINC000022448983    0.1700
66     H66     2.7604   -0.5823   -0.3471 H        1 ZINC000022448983    0.1600
@<TRIPOS>BOND
1     1     2     1
2     1     38    1
3     1     39    1
4     1     40    1
5     2     3     1
6     3     36    ar
7     3     4     ar
8     4     5     ar
9     4     41    1
10    5     6     1
11    5     33    ar
12    6     7     1
13    6     42    1
14    7     30    ar
15    7     8     ar
16    8     27    ar
17    8     9     ar
18    9     10    ar
19    9     43    1
20    10    11    1
21    10    13    ar
22    11    12    1
23    12    44    1
24    12    45    1
25    12    46    1
26    13    14    1
27    13    26    ar
28    14    15    1
29    15    16    1
30    15    47    1
31    15    48    1
32    16    17    1
33    16    49    1
34    16    50    1
35    17    18    1
36    17    51    1
37    17    52    1
38    18    25    1
39    18    19    1
40    19    20    1
41    19    53    1
42    19    54    1
43    20    21    1
44    20    55    1
45    20    56    1
46    21    22    1
47    21    23    1
48    21    24    1
49    23    57    1
50    23    58    1
51    23    59    1
52    24    25    1
53    24    60    1
54    24    61    1
55    25    62    1
56    25    63    1
57    26    27    ar
58    26    64    1
59    27    28    ar
60    28    29    ar
61    29    30    ar
62    29    65    1
63    30    31    1
64    31    32    3
65    33    34    1
66    33    35    ar
67    35    36    ar
68    35    66    1
69    36    37    1
@<TRIPOS>SUBSTRUCTURE
1   ZINC000022448983 1     RESIDUE    1   A     ZIN   1


@<TRIPOS>MOLECULE
CC1=C(C(=CC=C1)Cl)NC(=O)C2=CN=C(S2)NC3=CC(=NC(=N3)C)N4CCN(CC4)CCO
  59   62    0    0    0
SMALL
NO_CHARGES
@<TRIPOS>ATOM
   1 C1             2.5054     0.5664    -0.2808 C.3     
   2 C2             1.7487    -0.7349    -0.2098 C.ar    
   3 N3             1.2888    -1.2688    -1.3226 N.ar    
   4 C4             0.6153    -2.4175    -1.3024 C.ar    
   5 N5             0.1346    -2.9732    -2.4809 N.pl3   
   6 C6             0.2552    -2.2814    -3.6698 C.2     
   7 N7             0.8858    -1.1509    -3.8099 N.2     
   8 C8             0.9095    -0.6217    -5.0065 C.2     
   9 C9             0.2507    -1.3562    -5.9532 C.2     
  10 C10            0.1126    -1.0133    -7.3680 C.2     
  11 O11            0.6113     0.0110    -7.7977 O.2     
  12 N12           -0.5667    -1.8311    -8.1964 N.am    
  13 C13           -0.6009    -1.5647    -9.5694 C.ar    
  14 C14           -0.2615    -2.5569   -10.4792 C.ar    
  15 C15            0.1445    -3.9229    -9.9890 C.3     
  16 C16           -0.2967    -2.2909   -11.8345 C.ar    
  17 C17           -0.6689    -1.0382   -12.2856 C.ar    
  18 C18           -1.0074    -0.0468   -11.3826 C.ar    
  19 C19           -0.9804    -0.3077   -10.0259 C.ar    
  20 Cl20          -1.4058     0.9367    -8.8928 Cl      
  21 S21           -0.3962    -2.7930    -5.1649 S.3     
  22 C22            0.4006    -3.0528    -0.0839 C.ar    
  23 C23            0.9031    -2.4553     1.0687 C.ar    
  24 N24            0.7158    -3.0487     2.3074 N.pl3   
  25 C25            1.0496    -2.3305     3.5468 C.3     
  26 C26           -0.1583    -2.3953     4.4874 C.3     
  27 N27           -0.5579    -3.7970     4.6703 N.3     
  28 C28           -1.6013    -3.9173     5.6973 C.3     
  29 C29           -1.8138    -5.3937     6.0379 C.3     
  30 O30           -0.6289    -5.9192     6.6394 O.3     
  31 C31           -0.9957    -4.3960     3.4024 C.3     
  32 C32            0.1722    -4.4109     2.4175 C.3     
  33 N33            1.5708    -1.3082     0.9632 N.ar    
  34 H34            3.5673     0.3622    -0.4178 H       
  35 H35            2.1373     1.1553    -1.1210 H       
  36 H36            2.3589     1.1230     0.6449 H       
  37 H37           -0.2858    -3.8473    -2.4689 H       
  38 H38            1.4053     0.3122    -5.2267 H       
  39 H39           -1.0319    -2.6043    -7.8406 H       
  40 H40           -0.7387    -4.5562    -9.9053 H       
  41 H41            0.8457    -4.3685   -10.6946 H       
  42 H42            0.6202    -3.8319    -9.0125 H       
  43 H43           -0.0327    -3.0626   -12.5425 H       
  44 H44           -0.6952    -0.8332   -13.3457 H       
  45 H45           -1.2975     0.9308   -11.7383 H       
  46 H46           -0.1420    -3.9852    -0.0332 H       
  47 H47            1.9099    -2.8014     4.0225 H       
  48 H48            1.2791    -1.2901     3.3165 H       
  49 H49            0.1086    -1.9643     5.4524 H       
  50 H50           -0.9867    -1.8344     4.0548 H       
  51 H51           -1.2930    -3.3785     6.5933 H       
  52 H52           -2.5323    -3.4936     5.3209 H       
  53 H53           -2.6476    -5.4898     6.7334 H       
  54 H54           -2.0353    -5.9486     5.1263 H       
  55 H55           -0.6919    -6.8531     6.8820 H       
  56 H56           -1.3361    -5.4161     3.5805 H       
  57 H57           -1.8125    -3.8072     2.9849 H       
  58 H58           -0.1764    -4.7477     1.4412 H       
  59 H59            0.9505    -5.0809     2.7826 H       
@<TRIPOS>BOND
   1    1    2 1
   2    1   34 1
   3    1   35 1
   4    1   36 1
   5    2   33 ar
   6    2    3 ar
   7    3    4 ar
   8    4    5 1
   9    4   22 ar
  10    5    6 1
  11    5   37 1
  12    6   21 1
  13    6    7 2
  14    7    8 1
  15    8    9 2
  16    8   38 1
  17    9   10 1
  18    9   21 1
  19   10   11 2
  20   10   12 am
  21   12   13 1
  22   12   39 1
  23   13   19 ar
  24   13   14 ar
  25   14   15 1
  26   14   16 ar
  27   15   40 1
  28   15   41 1
  29   15   42 1
  30   16   17 ar
  31   16   43 1
  32   17   18 ar
  33   17   44 1
  34   18   19 ar
  35   18   45 1
  36   19   20 1
  37   22   23 ar
  38   22   46 1
  39   23   24 1
  40   23   33 ar
  41   24   32 1
  42   24   25 1
  43   25   26 1
  44   25   47 1
  45   25   48 1
  46   26   27 1
  47   26   49 1
  48   26   50 1
  49   27   28 1
  50   27   31 1
  51   28   29 1
  52   28   51 1
  53   28   52 1
  54   29   30 1
  55   29   53 1
  56   29   54 1
  57   30   55 1
  58   31   32 1
  59   31   56 1
  60   31   57 1
  61   32   58 1
  62   32   59 1


@<TRIPOS>MOLECULE
CCOC1=C(C=C2C(=C1)N=CC(=C2NC3=CC(=C(C=C3)F)Cl)C#N)NC(=O)C=CCN(C)C
57    59    1     0     0
SMALL
USER_CHARGES
@<TRIPOS>ATOM
1      C1      4.1572   -2.2833    1.1872 C.3      1 ZINC000000602803   -0.1500
2      C2      3.1236   -3.1630    0.4810 C.3      1 ZINC000000602803    0.0500
3      O3      1.9718   -3.3071    1.3143 O.3      1 ZINC000000602803   -0.3100
4      C4      0.9523   -4.0642    0.8318 C.ar     1 ZINC000000602803    0.1500
5      C5     -0.2081   -4.2382    1.6018 C.ar     1 ZINC000000602803    0.1200
6      N6     -0.3058   -3.6311    2.8593 N.am     1 ZINC000000602803   -0.6500
7      C7     -1.1224   -4.1510    3.7970 C.2      1 ZINC000000602803    0.5300
8      O8     -1.6923   -5.2054    3.5902 O.2      1 ZINC000000602803   -0.5100
9      C9     -1.3245   -3.4433    5.0703 C.2      1 ZINC000000602803   -0.1300
10     C10    -2.1305   -3.9564    5.9958 C.2      1 ZINC000000602803   -0.1400
11     C11    -2.3375   -3.2312    7.3005 C.3      1 ZINC000000602803    0.0200
12     N12    -3.7737   -3.0081    7.5142 N.4      1 ZINC000000602803   -0.3900
13     H13    -4.2624   -3.8893    7.4617 H        1 ZINC000000602803    0.4300
14     C14    -3.9844   -2.4095    8.8390 C.3      1 ZINC000000602803   -0.0500
15     C15    -4.2875   -2.1008    6.4794 C.3      1 ZINC000000602803   -0.0500
16     C16    -1.2512   -5.0020    1.1280 C.ar     1 ZINC000000602803   -0.0600
17     C17    -1.1514   -5.6094   -0.1319 C.ar     1 ZINC000000602803   -0.1300
18     C18     0.0186   -5.4356   -0.9103 C.ar     1 ZINC000000602803    0.1900
19     C19     1.0660   -4.6477   -0.4088 C.ar     1 ZINC000000602803   -0.1800
20     N20     0.1188   -6.0137   -2.1165 N.ar     1 ZINC000000602803   -0.4700
21     C21    -0.8418   -6.7488   -2.6157 C.ar     1 ZINC000000602803    0.2000
22     C22    -2.0366   -6.9746   -1.9135 C.ar     1 ZINC000000602803   -0.1000
23     C23    -3.0701   -7.7842   -2.4854 C.1      1 ZINC000000602803    0.2500
24     N24    -3.8900   -8.4265   -2.9390 N.1      1 ZINC000000602803   -0.3900
25     C25    -2.2066   -6.3991   -0.6451 C.ar     1 ZINC000000602803    0.2800
26     N26    -3.3658   -6.5970    0.0779 N.pl3    1 ZINC000000602803   -0.7000
27     C27    -3.6805   -7.8716    0.5596 C.ar     1 ZINC000000602803    0.1800
28     C28    -2.6673   -8.7356    0.9537 C.ar     1 ZINC000000602803   -0.1200
29     C29    -2.9798   -9.9942    1.4298 C.ar     1 ZINC000000602803   -0.1100
30     C30    -4.3021  -10.3951    1.5139 C.ar     1 ZINC000000602803    0.0900
31     F31    -4.6053  -11.6265    1.9798 F        1 ZINC000000602803   -0.1200
32     C32    -5.3154   -9.5348    1.1212 C.ar     1 ZINC000000602803   -0.0400
33     Cl33   -6.9728  -10.0404    1.2278 Cl       1 ZINC000000602803   -0.0400
34     C34    -5.0073   -8.2729    0.6498 C.ar     1 ZINC000000602803   -0.1200
35     H35     5.0358   -2.1734    0.5515 H        1 ZINC000000602803    0.0900
36     H36     3.7256   -1.3019    1.3835 H        1 ZINC000000602803    0.0700
37     H37     4.4466   -2.7481    2.1297 H        1 ZINC000000602803    0.0700
38     H38     2.8343   -2.6982   -0.4616 H        1 ZINC000000602803    0.0700
39     H39     3.5552   -4.1445    0.2847 H        1 ZINC000000602803    0.0700
40     H40     0.2142   -2.8362    3.0558 H        1 ZINC000000602803    0.4200
41     H41    -0.8185   -2.5070    5.2539 H        1 ZINC000000602803    0.1400
42     H42    -2.6365   -4.8927    5.8121 H        1 ZINC000000602803    0.1500
43     H43    -1.9376   -3.8319    8.1174 H        1 ZINC000000602803    0.1500
44     H44    -1.8215   -2.2716    7.2687 H        1 ZINC000000602803    0.1400
45     H45    -3.4565   -1.4576    8.8957 H        1 ZINC000000602803    0.1200
46     H46    -5.0501   -2.2440    8.9975 H        1 ZINC000000602803    0.1300
47     H47    -3.6031   -3.0827    9.6067 H        1 ZINC000000602803    0.1300
48     H48    -4.1311   -2.5450    5.4964 H        1 ZINC000000602803    0.1200
49     H49    -5.3532   -1.9353    6.6380 H        1 ZINC000000602803    0.1300
50     H50    -3.7596   -1.1489    6.5362 H        1 ZINC000000602803    0.1200
51     H51    -2.1421   -5.1330    1.7243 H        1 ZINC000000602803    0.1600
52     H52     1.9638   -4.5070   -0.9923 H        1 ZINC000000602803    0.1600
53     H53    -0.7126   -7.1924   -3.5919 H        1 ZINC000000602803    0.1800
54     H54    -3.9621   -5.8519    0.2518 H        1 ZINC000000602803    0.4200
55     H55    -1.6353   -8.4239    0.8878 H        1 ZINC000000602803    0.1400
56     H56    -2.1918  -10.6661    1.7363 H        1 ZINC000000602803    0.1500
57     H57    -5.7968   -7.6024    0.3441 H        1 ZINC000000602803    0.1500
@<TRIPOS>BOND
1     1     2     1
2     1     35    1
3     1     36    1
4     1     37    1
5     2     3     1
6     2     38    1
7     2     39    1
8     3     4     1
9     4     19    ar
10    4     5     ar
11    5     6     1
12    5     16    ar
13    6     7     am
14    6     40    1
15    7     8     2
16    7     9     1
17    9     10    2
18    9     41    1
19    10    11    1
20    10    42    1
21    11    12    1
22    11    43    1
23    11    44    1
24    12    13    1
25    12    14    1
26    12    15    1
27    14    45    1
28    14    46    1
29    14    47    1
30    15    48    1
31    15    49    1
32    15    50    1
33    16    17    ar
34    16    51    1
35    17    25    ar
36    17    18    ar
37    18    19    ar
38    18    20    ar
39    19    52    1
40    20    21    ar
41    21    22    ar
42    21    53    1
43    22    23    1
44    22    25    ar
45    23    24    3
46    25    26    1
47    26    27    1
48    26    54    1
49    27    34    ar
50    27    28    ar
51    28    29    ar
52    28    55    1
53    29    30    ar
54    29    56    1
55    30    31    1
56    30    32    ar
57    32    33    1
58    32    34    ar
59    34    57    1
@<TRIPOS>SUBSTRUCTURE
1   ZINC000000602803 1     RESIDUE    1   A     ZIN   1


@<TRIPOS>MOLECULE
CC(C)(C1=NC(=CC=C1)N2C3=NC(=NC=C3C(=O)N2CC=C)NC4=CC=C(C=C4)N5CCN(CC5)C)O
70    74    1     0     0
SMALL
USER_CHARGES
@<TRIPOS>ATOM
1      C1      0.1303    1.0083    0.0300 C.2      1 ZINC000063539231   -0.1600
2      C2      0.1374   -0.2994   -0.0468 C.2      1 ZINC000063539231   -0.1800
3      C3     -1.1627   -1.0615   -0.0440 C.3      1 ZINC000063539231    0.1600
4      N4     -1.2255   -1.9243   -1.2262 N.am     1 ZINC000063539231   -0.3900
5      C5     -1.7289   -1.5671   -2.4261 C.2      1 ZINC000063539231    0.5800
6      O6     -2.2053   -0.4865   -2.7176 O.2      1 ZINC000063539231   -0.5000
7      C7     -1.5922   -2.7288   -3.3138 C.ar     1 ZINC000063539231   -0.3600
8      C8     -1.9169   -2.9875   -4.6426 C.ar     1 ZINC000063539231    0.3000
9      N9     -1.6467   -4.1831   -5.1405 N.ar     1 ZINC000063539231   -0.5800
10     C10    -1.0777   -5.1229   -4.3951 C.ar     1 ZINC000063539231    0.6200
11     N11    -0.8158   -6.3541   -4.9614 N.pl3    1 ZINC000063539231   -0.6300
12     C12    -1.0391   -6.5576   -6.3292 C.ar     1 ZINC000063539231    0.1600
13     C13    -0.8108   -5.5265   -7.2310 C.ar     1 ZINC000063539231   -0.0800
14     C14    -1.0309   -5.7271   -8.5792 C.ar     1 ZINC000063539231   -0.1000
15     C15    -1.4806   -6.9600   -9.0335 C.ar     1 ZINC000063539231    0.0700
16     N16    -1.7033   -7.1635  -10.3999 N.3      1 ZINC000063539231   -0.4800
17     C17    -2.6524   -6.1753  -10.9318 C.3      1 ZINC000063539231    0.0200
18     C18    -2.8224   -6.3944  -12.4367 C.3      1 ZINC000063539231    0.0000
19     N19    -3.3180   -7.7554  -12.6807 N.4      1 ZINC000063539231   -0.3900
20     H20    -4.2021   -7.8805  -12.2108 H        1 ZINC000063539231    0.4200
21     C21    -3.4978   -7.9593  -14.1243 C.3      1 ZINC000063539231   -0.0500
22     C22    -2.3481   -8.7311  -12.1661 C.3      1 ZINC000063539231    0.0000
23     C23    -2.1741   -8.5315  -10.6589 C.3      1 ZINC000063539231    0.0200
24     C24    -1.7089   -7.9911   -8.1316 C.ar     1 ZINC000063539231   -0.1400
25     C25    -1.4834   -7.7922   -6.7840 C.ar     1 ZINC000063539231   -0.1200
26     N26    -0.7516   -4.9202   -3.1253 N.ar     1 ZINC000063539231   -0.5900
27     C27    -0.9879   -3.7509   -2.5493 C.ar     1 ZINC000063539231    0.4700
28     N28    -0.7674   -3.2446   -1.2883 N.pl3    1 ZINC000063539231   -0.3000
29     C29    -0.1805   -3.9408   -0.2351 C.ar     1 ZINC000063539231    0.3600
30     C30     0.1363   -5.2859   -0.3901 C.ar     1 ZINC000063539231   -0.1800
31     C31     0.7192   -5.9658    0.6646 C.ar     1 ZINC000063539231   -0.0400
32     C32     0.9662   -5.2745    1.8428 C.ar     1 ZINC000063539231   -0.1600
33     C33     0.6257   -3.9388    1.9272 C.ar     1 ZINC000063539231    0.1300
34     C34     0.8917   -3.1826    3.2032 C.3      1 ZINC000063539231    0.1800
35     C35     0.4283   -1.7332    3.0433 C.3      1 ZINC000063539231   -0.1700
36     C36     0.1262   -3.8387    4.3540 C.3      1 ZINC000063539231   -0.1400
37     O37     2.2919   -3.2062    3.4879 O.3      1 ZINC000063539231   -0.5500
38     N38     0.0758   -3.3149    0.9031 N.ar     1 ZINC000063539231   -0.5000
39     H39     1.0621    1.5544    0.0280 H        1 ZINC000063539231    0.1000
40     H40    -0.8074    1.5406    0.0907 H        1 ZINC000063539231    0.1000
41     H41     1.0750   -0.8314   -0.1120 H        1 ZINC000063539231    0.1100
42     H42    -1.2233   -1.6733    0.8560 H        1 ZINC000063539231    0.1200
43     H43    -1.9958   -0.3588   -0.0623 H        1 ZINC000063539231    0.1100
44     H44    -2.3802   -2.2277   -5.2545 H        1 ZINC000063539231    0.1900
45     H45    -0.4770   -7.0783   -4.4122 H        1 ZINC000063539231    0.4300
46     H46    -0.4614   -4.5676   -6.8777 H        1 ZINC000063539231    0.1400
47     H47    -0.8537   -4.9251   -9.2805 H        1 ZINC000063539231    0.1300
48     H48    -3.6160   -6.2930  -10.4360 H        1 ZINC000063539231    0.0700
49     H49    -2.2705   -5.1705  -10.7514 H        1 ZINC000063539231    0.1300
50     H50    -3.5368   -5.6716  -12.8307 H        1 ZINC000063539231    0.1400
51     H51    -1.8613   -6.2632  -12.9338 H        1 ZINC000063539231    0.1400
52     H52    -2.5430   -7.8238  -14.6321 H        1 ZINC000063539231    0.1200
53     H53    -3.8656   -8.9693  -14.3055 H        1 ZINC000063539231    0.1200
54     H54    -4.2184   -7.2362  -14.5064 H        1 ZINC000063539231    0.1200
55     H55    -2.7108   -9.7406  -12.3594 H        1 ZINC000063539231    0.1400
56     H56    -1.3893   -8.5879  -12.6646 H        1 ZINC000063539231    0.1400
57     H57    -1.4433   -9.2456  -10.2794 H        1 ZINC000063539231    0.1300
58     H58    -3.1298   -8.6880  -10.1586 H        1 ZINC000063539231    0.0700
59     H59    -2.0590   -8.9498   -8.4847 H        1 ZINC000063539231    0.1300
60     H60    -1.6609   -8.5940   -6.0826 H        1 ZINC000063539231    0.1300
61     H61    -0.0702   -5.7931   -1.3210 H        1 ZINC000063539231    0.1700
62     H62     0.9759   -7.0109    0.5735 H        1 ZINC000063539231    0.1500
63     H63     1.4197   -5.7761    2.6849 H        1 ZINC000063539231    0.1500
64     H64    -0.6397   -1.7152    2.8261 H        1 ZINC000063539231    0.0700
65     H65     0.6207   -1.1863    3.9662 H        1 ZINC000063539231    0.0700
66     H66     0.9737   -1.2658    2.2234 H        1 ZINC000063539231    0.0700
67     H67     0.4564   -4.8713    4.4680 H        1 ZINC000063539231    0.0700
68     H68     0.3186   -3.2918    5.2770 H        1 ZINC000063539231    0.0800
69     H69    -0.9418   -3.8207    4.1369 H        1 ZINC000063539231    0.0700
70     H70     2.8401   -2.8057    2.7993 H        1 ZINC000063539231    0.3800
@<TRIPOS>BOND
1     1     2     2
2     1     39    1
3     1     40    1
4     2     3     1
5     2     41    1
6     3     4     1
7     3     42    1
8     3     43    1
9     4     28    1
10    4     5     am
11    5     6     2
12    5     7     1
13    7     27    ar
14    7     8     ar
15    8     9     ar
16    8     44    1
17    9     10    ar
18    10    11    1
19    10    26    ar
20    11    12    1
21    11    45    1
22    12    25    ar
23    12    13    ar
24    13    14    ar
25    13    46    1
26    14    15    ar
27    14    47    1
28    15    16    1
29    15    24    ar
30    16    23    1
31    16    17    1
32    17    18    1
33    17    48    1
34    17    49    1
35    18    19    1
36    18    50    1
37    18    51    1
38    19    20    1
39    19    21    1
40    19    22    1
41    21    52    1
42    21    53    1
43    21    54    1
44    22    23    1
45    22    55    1
46    22    56    1
47    23    57    1
48    23    58    1
49    24    25    ar
50    24    59    1
51    25    60    1
52    26    27    ar
53    27    28    1
54    28    29    1
55    29    38    ar
56    29    30    ar
57    30    31    ar
58    30    61    1
59    31    32    ar
60    31    62    1
61    32    33    ar
62    32    63    1
63    33    34    1
64    33    38    ar
65    34    35    1
66    34    36    1
67    34    37    1
68    35    64    1
69    35    65    1
70    35    66    1
71    36    67    1
72    36    68    1
73    36    69    1
74    37    70    1
@<TRIPOS>SUBSTRUCTURE
1   ZINC000063539231 1     RESIDUE    1   A     ZIN   1


@<TRIPOS>MOLECULE
CC1=C(CC(OC)=O)C(N2C(N1)=NC(NCC3=CC=CC=C3)=N2)=O
41    43    1     0     0
SMALL
USER_CHARGES
@<TRIPOS>ATOM
1      C1     -0.0176    1.4478    0.0100 C.3      1 ZINC000018219951    0.0400
2      O2      0.0021   -0.0041    0.0020 O.3      1 ZINC000018219951   -0.3600
3      C3     -1.1855   -0.6297    0.0100 C.2      1 ZINC000018219951    0.4600
4      O4     -2.2076    0.0145    0.0232 O.2      1 ZINC000018219951   -0.5000
5      C5     -1.2439   -2.1355    0.0025 C.3      1 ZINC000018219951   -0.0300
6      C6     -2.6831   -2.5824    0.0138 C.2      1 ZINC000018219951   -0.2900
7      C7     -3.3338   -2.8889   -1.1624 C.2      1 ZINC000018219951    0.2500
8      C8     -2.6068   -2.7789   -2.4778 C.3      1 ZINC000018219951   -0.1100
9      N9     -4.6016   -3.2815   -1.1343 N.2      1 ZINC000018219951   -0.5500
10     C10    -5.2649   -3.3876    0.0059 C.2      1 ZINC000018219951    0.5600
11     N11    -6.5514   -3.7642    0.2814 N.pl3    1 ZINC000018219951   -0.6200
12     C12    -6.7333   -3.7013    1.6385 C.2      1 ZINC000018219951    0.5500
13     N13    -7.9043   -4.0071    2.3079 N.pl3    1 ZINC000018219951   -0.6900
14     C14    -7.9638   -3.8969    3.7675 C.3      1 ZINC000018219951    0.1800
15     C15    -9.3399   -4.2837    4.2448 C.ar     1 ZINC000018219951   -0.1200
16     C16   -10.3276   -3.3231    4.3578 C.ar     1 ZINC000018219951   -0.1000
17     C17   -11.5899   -3.6778    4.7956 C.ar     1 ZINC000018219951   -0.1200
18     C18   -11.8647   -4.9932    5.1198 C.ar     1 ZINC000018219951   -0.1000
19     C19   -10.8773   -5.9540    5.0059 C.ar     1 ZINC000018219951   -0.1200
20     C20    -9.6162   -5.6000    4.5641 C.ar     1 ZINC000018219951   -0.1000
21     N21    -5.6224   -3.3059    2.1958 N.2      1 ZINC000018219951   -0.3200
22     N22    -4.6735   -3.0993    1.1865 N.am     1 ZINC000018219951   -0.3600
23     C23    -3.3859   -2.7007    1.2211 C.2      1 ZINC000018219951    0.5600
24     O24    -2.8427   -2.4442    2.2847 O.2      1 ZINC000018219951   -0.5100
25     H25     1.0050    1.8251    0.0023 H        1 ZINC000018219951    0.1000
26     H26    -0.5448    1.8089   -0.8731 H        1 ZINC000018219951    0.0600
27     H27    -0.5278    1.7993    0.9068 H        1 ZINC000018219951    0.0600
28     H28    -0.7531   -2.5137   -0.8943 H        1 ZINC000018219951    0.1200
29     H29    -0.7361   -2.5233    0.8856 H        1 ZINC000018219951    0.1200
30     H30    -2.1272   -3.7301   -2.7086 H        1 ZINC000018219951    0.1000
31     H31    -3.3174   -2.5296   -3.2659 H        1 ZINC000018219951    0.0900
32     H32    -1.8500   -1.9973   -2.4104 H        1 ZINC000018219951    0.0800
33     H33    -7.2189   -4.0292   -0.3706 H        1 ZINC000018219951    0.4500
34     H34    -8.6861   -4.2946    1.8109 H        1 ZINC000018219951    0.4200
35     H35    -7.2245   -4.5628    4.2126 H        1 ZINC000018219951    0.0900
36     H36    -7.7521   -2.8694    4.0633 H        1 ZINC000018219951    0.0900
37     H37   -10.1129   -2.2954    4.1045 H        1 ZINC000018219951    0.1300
38     H38   -12.3613   -2.9273    4.8846 H        1 ZINC000018219951    0.1300
39     H39   -12.8507   -5.2703    5.4625 H        1 ZINC000018219951    0.1300
40     H40   -11.0919   -6.9816    5.2596 H        1 ZINC000018219951    0.1300
41     H41    -8.8448   -6.3506    4.4750 H        1 ZINC000018219951    0.1300
@<TRIPOS>BOND
1     1     2     1
2     1     25    1
3     1     26    1
4     1     27    1
5     2     3     1
6     3     4     2
7     3     5     1
8     5     6     1
9     5     28    1
10    5     29    1
11    6     23    1
12    6     7     2
13    7     8     1
14    7     9     1
15    8     30    1
16    8     31    1
17    8     32    1
18    9     10    2
19    10    22    1
20    10    11    1
21    11    12    1
22    11    33    1
23    12    13    1
24    12    21    2
25    13    14    1
26    13    34    1
27    14    15    1
28    14    35    1
29    14    36    1
30    15    20    ar
31    15    16    ar
32    16    17    ar
33    16    37    1
34    17    18    ar
35    17    38    1
36    18    19    ar
37    18    39    1
38    19    20    ar
39    19    40    1
40    20    41    1
41    21    22    1
42    22    23    am
43    23    24    2
@<TRIPOS>SUBSTRUCTURE
1   ZINC000018219951 1     RESIDUE    1   A     ZIN   1


@<TRIPOS>MOLECULE
CN1C2=C(C=NC(NC3=CC=C(OCCN(CC)CC)C=C3)=N2)C=C(C4=C(Cl)C=CC=C4Cl)C1=O
63    66    1     0     0
SMALL
USER_CHARGES
@<TRIPOS>ATOM
1      C1     -0.1174    1.6074   -0.6952 C.3      1 ZINC000001486219   -0.1900
2      C2     -0.0830    0.0900   -0.5022 C.3      1 ZINC000001486219   -0.0200
3      N3     -1.4294   -0.3915   -0.1656 N.4      1 ZINC000001486219   -0.3900
4      H4     -1.7778    0.1158    0.6340 H        1 ZINC000001486219    0.4300
5      C5     -2.3260   -0.1781   -1.3095 C.3      1 ZINC000001486219   -0.0100
6      C6     -3.7570   -0.5447   -0.9112 C.3      1 ZINC000001486219   -0.1900
7      C7     -1.3719   -1.8248    0.1508 C.3      1 ZINC000001486219   -0.0100
8      C8     -0.5388   -2.0346    1.4168 C.3      1 ZINC000001486219    0.0300
9      O9     -1.2007   -1.4283    2.5287 O.3      1 ZINC000001486219   -0.3300
10     C10    -0.5884   -1.5243    3.7390 C.ar     1 ZINC000001486219    0.1000
11     C11     0.6268   -2.1838    3.8508 C.ar     1 ZINC000001486219   -0.1800
12     C12     1.2490   -2.2822    5.0796 C.ar     1 ZINC000001486219   -0.0700
13     C13     0.6581   -1.7203    6.2036 C.ar     1 ZINC000001486219    0.1400
14     N14     1.2885   -1.8192    7.4500 N.pl3    1 ZINC000001486219   -0.6300
15     C15     2.6675   -1.8051    7.5295 C.ar     1 ZINC000001486219    0.6000
16     N16     3.3700   -1.5839    6.4237 N.ar     1 ZINC000001486219   -0.5800
17     C17     4.6894   -1.5602    6.4458 C.ar     1 ZINC000001486219    0.2600
18     C18     5.3445   -1.7746    7.6677 C.ar     1 ZINC000001486219   -0.2700
19     C19     6.7553   -1.7607    7.7546 C.2      1 ZINC000001486219    0.0200
20     C20     7.3476   -1.9748    8.9703 C.2      1 ZINC000001486219   -0.1500
21     C21     8.8239   -1.9660    9.0945 C.ar     1 ZINC000001486219   -0.0200
22     C22     9.5484   -3.1466    8.9260 C.ar     1 ZINC000001486219   -0.0100
23     Cl23    8.7219   -4.6312    8.5702 Cl       1 ZINC000001486219   -0.0500
24     C24    10.9245   -3.1314    9.0426 C.ar     1 ZINC000001486219   -0.1100
25     C25    11.5846   -1.9493    9.3262 C.ar     1 ZINC000001486219   -0.0800
26     C26    10.8724   -0.7755    9.4948 C.ar     1 ZINC000001486219   -0.1000
27     C27     9.4964   -0.7758    9.3747 C.ar     1 ZINC000001486219   -0.0100
28     Cl28    8.6044    0.6983    9.5866 Cl       1 ZINC000001486219   -0.0500
29     C29     6.5086   -2.2123   10.1470 C.2      1 ZINC000001486219    0.5600
30     O30     7.0273   -2.4037   11.2324 O.2      1 ZINC000001486219   -0.4900
31     N31     5.1664   -2.2196   10.0352 N.am     1 ZINC000001486219   -0.5100
32     C32     4.3413   -2.4582   11.2220 C.3      1 ZINC000001486219    0.0700
33     C33     4.5640   -2.0064    8.8210 C.ar     1 ZINC000001486219    0.4700
34     N34     3.2407   -2.0072    8.7061 N.ar     1 ZINC000001486219   -0.5900
35     C35    -0.5583   -1.0598    6.0909 C.ar     1 ZINC000001486219   -0.1000
36     C36    -1.1767   -0.9578    4.8603 C.ar     1 ZINC000001486219   -0.1200
37     H37     0.8969    1.9779   -0.8434 H        1 ZINC000001486219    0.1100
38     H38    -0.7237    1.8490   -1.5682 H        1 ZINC000001486219    0.0800
39     H39    -0.5500    2.0763    0.1886 H        1 ZINC000001486219    0.0800
40     H40     0.2533   -0.3858   -1.4234 H        1 ZINC000001486219    0.1300
41     H41     0.6043   -0.1579    0.3066 H        1 ZINC000001486219    0.1300
42     H42    -2.2893    0.8692   -1.6095 H        1 ZINC000001486219    0.1300
43     H43    -2.0084   -0.8059   -2.1421 H        1 ZINC000001486219    0.1300
44     H44    -3.8153   -1.6142   -0.7092 H        1 ZINC000001486219    0.0800
45     H45    -4.0384    0.0100   -0.0161 H        1 ZINC000001486219    0.0800
46     H46    -4.4368   -0.2910   -1.7246 H        1 ZINC000001486219    0.1100
47     H47    -2.3817   -2.2017    0.3138 H        1 ZINC000001486219    0.1400
48     H48    -0.9132   -2.3621   -0.6792 H        1 ZINC000001486219    0.1500
49     H49    -0.4216   -3.1024    1.6019 H        1 ZINC000001486219    0.1100
50     H50     0.4426   -1.5789    1.2856 H        1 ZINC000001486219    0.0900
51     H51     1.0863   -2.6208    2.9765 H        1 ZINC000001486219    0.1300
52     H52     2.1948   -2.7963    5.1666 H        1 ZINC000001486219    0.1400
53     H53     0.7569   -1.8976    8.2575 H        1 ZINC000001486219    0.4300
54     H54     5.2529   -1.3801    5.5422 H        1 ZINC000001486219    0.1900
55     H55     7.3570   -1.5841    6.8753 H        1 ZINC000001486219    0.1500
56     H56    11.4865   -4.0444    8.9125 H        1 ZINC000001486219    0.1500
57     H57    12.6608   -1.9428    9.4166 H        1 ZINC000001486219    0.1500
58     H58    11.3937    0.1440    9.7163 H        1 ZINC000001486219    0.1500
59     H59     4.9855   -2.6062   12.0887 H        1 ZINC000001486219    0.1000
60     H60     3.6938   -1.5982   11.3933 H        1 ZINC000001486219    0.0800
61     H61     3.7305   -3.3476   11.0672 H        1 ZINC000001486219    0.0800
62     H62    -1.0185   -0.6225    6.9646 H        1 ZINC000001486219    0.1400
63     H63    -2.1225   -0.4439    4.7724 H        1 ZINC000001486219    0.1400
@<TRIPOS>BOND
1     1     2     1
2     1     37    1
3     1     38    1
4     1     39    1
5     2     3     1
6     2     40    1
7     2     41    1
8     3     4     1
9     3     5     1
10    3     7     1
11    5     6     1
12    5     42    1
13    5     43    1
14    6     44    1
15    6     45    1
16    6     46    1
17    7     8     1
18    7     47    1
19    7     48    1
20    8     9     1
21    8     49    1
22    8     50    1
23    9     10    1
24    10    36    ar
25    10    11    ar
26    11    12    ar
27    11    51    1
28    12    13    ar
29    12    52    1
30    13    14    1
31    13    35    ar
32    14    15    1
33    14    53    1
34    15    34    ar
35    15    16    ar
36    16    17    ar
37    17    18    ar
38    17    54    1
39    18    33    ar
40    18    19    1
41    19    20    2
42    19    55    1
43    20    21    1
44    20    29    1
45    21    27    ar
46    21    22    ar
47    22    23    1
48    22    24    ar
49    24    25    ar
50    24    56    1
51    25    26    ar
52    25    57    1
53    26    27    ar
54    26    58    1
55    27    28    1
56    29    30    2
57    29    31    am
58    31    32    1
59    31    33    1
60    32    59    1
61    32    60    1
62    32    61    1
63    33    34    ar
64    35    36    ar
65    35    62    1
66    36    63    1
@<TRIPOS>SUBSTRUCTURE
1   ZINC000001486219 1     RESIDUE    1   A     ZIN   1


@<TRIPOS>MOLECULE
O=C(CNC(C)=O)N1[C@@H]2CC[C@H]1C3=CC(NC4=NC(NC5CCC5)=C(C(F)(F)F)C=N4)=CC=C32
59    63    1     0     0
SMALL
USER_CHARGES
@<TRIPOS>ATOM
1      C1     -0.7007    1.6190    0.4628 C.3      1 ZINC000043196229   -0.1700
2      C2     -0.5266    0.1288    0.3215 C.2      1 ZINC000043196229    0.5100
3      O3      0.5824   -0.3414    0.1801 O.2      1 ZINC000043196229   -0.5500
4      N4     -1.6032   -0.6814    0.3524 N.am     1 ZINC000043196229   -0.7200
5      C5     -1.4339   -2.1301    0.2150 C.3      1 ZINC000043196229    0.1000
6      C6     -2.7812   -2.8019    0.2824 C.2      1 ZINC000043196229    0.5400
7      O7     -3.7840   -2.1362    0.4306 O.2      1 ZINC000043196229   -0.5300
8      N8     -2.8716   -4.1426    0.1780 N.am     1 ZINC000043196229   -0.6300
9      C9     -4.0548   -5.0748    0.2021 C.3      1 ZINC000043196229    0.1900
10     H10    -5.0362   -4.6051    0.2676 H        1 ZINC000043196229    0.1300
11     C11    -3.6641   -6.0039    1.3941 C.3      1 ZINC000043196229   -0.1300
12     C12    -2.1221   -6.0982    1.2667 C.3      1 ZINC000043196229   -0.1300
13     C13    -1.8240   -5.2089   -0.0084 C.3      1 ZINC000043196229    0.1700
14     H14    -0.7969   -4.8600   -0.1148 H        1 ZINC000043196229    0.1300
15     C15    -2.3813   -6.0070   -1.1846 C.ar     1 ZINC000043196229   -0.1300
16     C16    -1.7969   -6.7020   -2.2160 C.ar     1 ZINC000043196229   -0.0700
17     C17    -2.5931   -7.3393   -3.1516 C.ar     1 ZINC000043196229   -0.1000
18     C18    -3.9767   -7.2755   -3.0472 C.ar     1 ZINC000043196229    0.1700
19     N19    -4.7797   -7.9203   -3.9928 N.pl3    1 ZINC000043196229   -0.6300
20     C20    -4.3572   -9.1089   -4.5651 C.ar     1 ZINC000043196229    0.6200
21     N21    -3.2470   -9.6801   -4.1223 N.ar     1 ZINC000043196229   -0.5900
22     C22    -2.8111  -10.8174   -4.6443 C.ar     1 ZINC000043196229    0.2700
23     C23    -3.5283  -11.4114   -5.6641 C.ar     1 ZINC000043196229   -0.4100
24     C24    -3.0630  -12.7051   -6.2813 C.3      1 ZINC000043196229    0.5300
25     F25    -1.8797  -13.1190   -5.6603 F        1 ZINC000043196229   -0.1700
26     F26    -4.0473  -13.6843   -6.1092 F        1 ZINC000043196229   -0.1800
27     F27    -2.8303  -12.5129   -7.6473 F        1 ZINC000043196229   -0.1800
28     C28    -4.6950  -10.7860   -6.1102 C.ar     1 ZINC000043196229    0.5300
29     N29    -5.4463  -11.3456   -7.1307 N.pl3    1 ZINC000043196229   -0.6800
30     C30    -6.6681  -10.6806   -7.5902 C.3      1 ZINC000043196229    0.1200
31     C31    -6.5277  -10.0204   -8.9720 C.3      1 ZINC000043196229   -0.1500
32     C32    -6.9701  -11.3652   -9.5724 C.3      1 ZINC000043196229   -0.1500
33     C33    -7.6837  -11.6369   -8.2375 C.3      1 ZINC000043196229   -0.1500
34     N34    -5.0764   -9.6489   -5.5378 N.ar     1 ZINC000043196229   -0.6100
35     C35    -4.5636   -6.5698   -2.0007 C.ar     1 ZINC000043196229   -0.1200
36     C36    -3.7900   -5.8906   -1.0608 C.ar     1 ZINC000043196229   -0.0900
37     H37     0.2738    2.1049    0.4141 H        1 ZINC000043196229    0.1000
38     H38    -1.3321    1.9892   -0.3449 H        1 ZINC000043196229    0.0900
39     H39    -1.1697    1.8407    1.4215 H        1 ZINC000043196229    0.0900
40     H40    -2.4901   -0.3053    0.4656 H        1 ZINC000043196229    0.4100
41     H41    -0.9648   -2.3518   -0.7436 H        1 ZINC000043196229    0.1000
42     H42    -0.8025   -2.5003    1.0227 H        1 ZINC000043196229    0.1000
43     H43    -3.9459   -5.5512    2.3448 H        1 ZINC000043196229    0.0800
44     H44    -4.1214   -6.9871    1.2831 H        1 ZINC000043196229    0.0900
45     H45    -1.6360   -5.6927    2.1540 H        1 ZINC000043196229    0.0800
46     H46    -1.8116   -7.1283    1.0919 H        1 ZINC000043196229    0.0900
47     H47    -0.7210   -6.7504   -2.2963 H        1 ZINC000043196229    0.1300
48     H48    -2.1381   -7.8865   -3.9640 H        1 ZINC000043196229    0.1400
49     H49    -5.6327   -7.5354   -4.2480 H        1 ZINC000043196229    0.4300
50     H50    -1.9046  -11.2747   -4.2764 H        1 ZINC000043196229    0.1800
51     H51    -5.1633  -12.1778   -7.5410 H        1 ZINC000043196229    0.4100
52     H52    -7.1040  -10.0269   -6.8347 H        1 ZINC000043196229    0.1100
53     H53    -7.2374   -9.2111   -9.1433 H        1 ZINC000043196229    0.0900
54     H54    -5.5030   -9.7462   -9.2228 H        1 ZINC000043196229    0.0700
55     H55    -7.6501  -11.2632  -10.4182 H        1 ZINC000043196229    0.0700
56     H56    -6.1436  -12.0471   -9.7724 H        1 ZINC000043196229    0.0800
57     H57    -7.5922  -12.6678   -7.8955 H        1 ZINC000043196229    0.0700
58     H58    -8.7095  -11.2695   -8.2081 H        1 ZINC000043196229    0.1000
59     H59    -5.6390   -6.5175   -1.9161 H        1 ZINC000043196229    0.1200
@<TRIPOS>BOND
1     1     2     1
2     1     37    1
3     1     38    1
4     1     39    1
5     2     3     2
6     2     4     am
7     4     5     1
8     4     40    1
9     5     6     1
10    5     41    1
11    5     42    1
12    6     7     2
13    6     8     am
14    8     13    1
15    8     9     1
16    9     10    1
17    9     36    1
18    9     11    1
19    11    12    1
20    11    43    1
21    11    44    1
22    12    13    1
23    12    45    1
24    12    46    1
25    13    14    1
26    13    15    1
27    15    36    ar
28    15    16    ar
29    16    17    ar
30    16    47    1
31    17    18    ar
32    17    48    1
33    18    19    1
34    18    35    ar
35    19    20    1
36    19    49    1
37    20    34    ar
38    20    21    ar
39    21    22    ar
40    22    23    ar
41    22    50    1
42    23    24    1
43    23    28    ar
44    24    25    1
45    24    26    1
46    24    27    1
47    28    29    1
48    28    34    ar
49    29    30    1
50    29    51    1
51    30    33    1
52    30    31    1
53    30    52    1
54    31    32    1
55    31    53    1
56    31    54    1
57    32    33    1
58    32    55    1
59    32    56    1
60    33    57    1
61    33    58    1
62    35    36    ar
63    35    59    1
@<TRIPOS>SUBSTRUCTURE
1   ZINC000043196229 1     RESIDUE    1   A     ZIN   1


@<TRIPOS>MOLECULE
CN(C1=NC(NC2=CC(C(O)=O)=CC=C2)=NC=C1C=C3C4=C(Cl)C=CC=C4Cl)C3=O
43    46    1     0     0
SMALL
USER_CHARGES
@<TRIPOS>ATOM
1      C1      0.6781    1.4224    0.0437 C.3      1 ZINC000003815299    0.0700
2      N2      0.4968   -0.0312    0.0258 N.am     1 ZINC000003815299   -0.5100
3      C3      0.5333   -0.6931   -1.1466 C.2      1 ZINC000003815299    0.5600
4      O4      0.7170   -0.0801   -2.1831 O.2      1 ZINC000003815299   -0.5200
5      C5      0.3538   -2.1462   -1.1816 C.2      1 ZINC000003815299   -0.1900
6      C6      0.3946   -2.8735   -2.4717 C.ar     1 ZINC000003815299    0.0000
7      C7      1.6040   -3.3725   -2.9569 C.ar     1 ZINC000003815299   -0.0100
8      Cl8     3.0662   -3.1434   -2.0497 Cl       1 ZINC000003815299   -0.0500
9      C9      1.6351   -4.0496   -4.1603 C.ar     1 ZINC000003815299   -0.1100
10     C10     0.4709   -4.2330   -4.8845 C.ar     1 ZINC000003815299   -0.0900
11     C11    -0.7312   -3.7405   -4.4094 C.ar     1 ZINC000003815299   -0.1100
12     C12    -0.7772   -3.0674   -3.2042 C.ar     1 ZINC000003815299   -0.0100
13     Cl13   -2.2869   -2.4501   -2.6096 Cl       1 ZINC000003815299   -0.0500
14     C14     0.1485   -2.8265   -0.0114 C.2      1 ZINC000003815299    0.0500
15     C15     0.1151   -2.1051    1.2038 C.ar     1 ZINC000003815299   -0.2900
16     C16    -0.0916   -2.7553    2.4297 C.ar     1 ZINC000003815299    0.2700
17     N17    -0.1128   -2.0313    3.5331 N.ar     1 ZINC000003815299   -0.5500
18     C18     0.0569   -0.7143    3.4948 C.ar     1 ZINC000003815299    0.6100
19     N19     0.0256   -0.0045    4.6799 N.pl3    1 ZINC000003815299   -0.6200
20     C20    -0.0645   -0.6832    5.8992 C.ar     1 ZINC000003815299    0.1200
21     C21    -0.7689   -0.1208    6.9572 C.ar     1 ZINC000003815299   -0.1500
22     C22    -0.8613   -0.7873    8.1652 C.ar     1 ZINC000003815299   -0.1200
23     C23    -0.2546   -2.0152    8.3293 C.ar     1 ZINC000003815299   -0.0900
24     C24     0.4563   -2.5900    7.2722 C.ar     1 ZINC000003815299   -0.1200
25     C25     1.1065   -3.9034    7.4444 C.2      1 ZINC000003815299    0.5200
26     O26     1.0239   -4.4910    8.5137 O.co2    1 ZINC000003815299   -0.6900
27     O27     1.7279   -4.4042    6.5179 O.co2    1 ZINC000003815299   -0.6800
28     C28     0.5442   -1.9196    6.0509 C.ar     1 ZINC000003815299   -0.0700
29     N29     0.2555   -0.0568    2.3627 N.ar     1 ZINC000003815299   -0.6000
30     C30     0.2971   -0.7051    1.2042 C.ar     1 ZINC000003815299    0.4700
31     H31     1.7380    1.6551    0.1470 H        1 ZINC000003815299    0.0700
32     H32     0.3020    1.8470   -0.8871 H        1 ZINC000003815299    0.0900
33     H33     0.1293    1.8467    0.8845 H        1 ZINC000003815299    0.0900
34     H34     2.5705   -4.4363   -4.5370 H        1 ZINC000003815299    0.1400
35     H35     0.5007   -4.7629   -5.8251 H        1 ZINC000003815299    0.1400
36     H36    -1.6366   -3.8864   -4.9799 H        1 ZINC000003815299    0.1400
37     H37     0.0136   -3.8981   -0.0166 H        1 ZINC000003815299    0.1500
38     H38    -0.2308   -3.8256    2.4697 H        1 ZINC000003815299    0.1900
39     H39     0.0660    0.9646    4.6661 H        1 ZINC000003815299    0.4200
40     H40    -1.2456    0.8406    6.8355 H        1 ZINC000003815299    0.1200
41     H41    -1.4102   -0.3447    8.9833 H        1 ZINC000003815299    0.1200
42     H42    -0.3286   -2.5322    9.2746 H        1 ZINC000003815299    0.1300
43     H43     1.0917   -2.3584    5.2299 H        1 ZINC000003815299    0.1400
@<TRIPOS>BOND
1     1     2     1
2     1     31    1
3     1     32    1
4     1     33    1
5     2     30    1
6     2     3     am
7     3     4     2
8     3     5     1
9     5     6     1
10    5     14    2
11    6     12    ar
12    6     7     ar
13    7     8     1
14    7     9     ar
15    9     10    ar
16    9     34    1
17    10    11    ar
18    10    35    1
19    11    12    ar
20    11    36    1
21    12    13    1
22    14    15    1
23    14    37    1
24    15    30    ar
25    15    16    ar
26    16    17    ar
27    16    38    1
28    17    18    ar
29    18    19    1
30    18    29    ar
31    19    20    1
32    19    39    1
33    20    28    ar
34    20    21    ar
35    21    22    ar
36    21    40    1
37    22    23    ar
38    22    41    1
39    23    24    ar
40    23    42    1
41    24    25    1
42    24    28    ar
43    25    26    ar
44    25    27    ar
45    28    43    1
46    29    30    ar
@<TRIPOS>SUBSTRUCTURE
1   ZINC000003815299 1     RESIDUE    1   A     ZIN   1


@<TRIPOS>MOLECULE
CN(C1=NC(NC2=CC=C(N3CCOCC3)C=C2)=NC=C1C=C4C5=C(Cl)C=CC=C5Cl)C4=O
54    58    1     0     0
SMALL
USER_CHARGES
@<TRIPOS>ATOM
1      C1      0.6799    1.4230    0.0442 C.3      1 ZINC000013812765    0.0700
2      N2      0.5014   -0.0309    0.0263 N.am     1 ZINC000013812765   -0.5100
3      C3      0.5402   -0.6930   -1.1460 C.2      1 ZINC000013812765    0.5600
4      O4      0.7237   -0.0798   -2.1825 O.2      1 ZINC000013812765   -0.5000
5      C5      0.3635   -2.1463   -1.1810 C.2      1 ZINC000013812765   -0.1600
6      C6      0.4068   -2.8737   -2.4710 C.ar     1 ZINC000013812765   -0.0100
7      C7      1.6177   -3.3706   -2.9549 C.ar     1 ZINC000013812765   -0.0100
8      Cl8     3.0787   -3.1381   -2.0465 Cl       1 ZINC000013812765   -0.0500
9      C9      1.6511   -4.0482   -4.1579 C.ar     1 ZINC000013812765   -0.1100
10     C10     0.4878   -4.2343   -4.8829 C.ar     1 ZINC000013812765   -0.0900
11     C11    -0.7157   -3.7443   -4.4089 C.ar     1 ZINC000013812765   -0.1100
12     C12    -0.7639   -3.0699   -3.2045 C.ar     1 ZINC000013812765   -0.0100
13     Cl13   -2.2754   -2.4557   -2.6113 Cl       1 ZINC000013812765   -0.0500
14     C14     0.1583   -2.8269   -0.0108 C.2      1 ZINC000013812765    0.0300
15     C15     0.1224   -2.1055    1.2042 C.ar     1 ZINC000013812765   -0.2800
16     C16    -0.0843   -2.7559    2.4300 C.ar     1 ZINC000013812765    0.2600
17     N17    -0.1079   -2.0319    3.5333 N.ar     1 ZINC000013812765   -0.5700
18     C18     0.0594   -0.7145    3.4950 C.ar     1 ZINC000013812765    0.6100
19     N19     0.0256   -0.0049    4.6796 N.pl3    1 ZINC000013812765   -0.6200
20     C20    -0.0646   -0.6847    5.9009 C.ar     1 ZINC000013812765    0.1300
21     C21     0.5499   -1.9206    6.0546 C.ar     1 ZINC000013812765   -0.0800
22     C22     0.4610   -2.5908    7.2585 C.ar     1 ZINC000013812765   -0.1200
23     C23    -0.2425   -2.0288    8.3158 C.ar     1 ZINC000013812765    0.1000
24     N24    -0.3322   -2.7078    9.5361 N.3      1 ZINC000013812765   -0.4900
25     C25    -0.9025   -4.0501    9.3514 C.3      1 ZINC000013812765    0.0200
26     C26    -0.9272   -4.7780   10.6981 C.3      1 ZINC000013812765    0.0600
27     O27    -1.6687   -3.9998   11.6414 O.3      1 ZINC000013812765   -0.3800
28     C28    -1.1405   -2.6866   11.8461 C.3      1 ZINC000013812765    0.0600
29     C29    -1.1180   -1.9375   10.5111 C.3      1 ZINC000013812765    0.0100
30     C30    -0.8566   -0.7926    8.1622 C.ar     1 ZINC000013812765   -0.1500
31     C31    -0.7636   -0.1203    6.9598 C.ar     1 ZINC000013812765   -0.1100
32     N32     0.2578   -0.0567    2.3629 N.ar     1 ZINC000013812765   -0.6000
33     C33     0.3018   -0.7051    1.2045 C.ar     1 ZINC000013812765    0.4700
34     H34     1.7393    1.6577    0.1485 H        1 ZINC000013812765    0.0700
35     H35     0.3039    1.8467   -0.8871 H        1 ZINC000013812765    0.0900
36     H36     0.1295    1.8464    0.8843 H        1 ZINC000013812765    0.1000
37     H37     2.5876   -4.4333   -4.5336 H        1 ZINC000013812765    0.1400
38     H38     0.5195   -4.7643   -5.8234 H        1 ZINC000013812765    0.1500
39     H39    -1.6204   -3.8929   -4.9798 H        1 ZINC000013812765    0.1400
40     H40     0.0255   -3.8987   -0.0161 H        1 ZINC000013812765    0.1500
41     H41    -0.2215   -3.8264    2.4699 H        1 ZINC000013812765    0.1900
42     H42     0.0643    0.9643    4.6657 H        1 ZINC000013812765    0.4300
43     H43     1.0970   -2.3576    5.2324 H        1 ZINC000013812765    0.1400
44     H44     0.9383   -3.5522    7.3778 H        1 ZINC000013812765    0.1300
45     H45    -1.9183   -3.9641    8.9656 H        1 ZINC000013812765    0.0500
46     H46    -0.2907   -4.6116    8.6454 H        1 ZINC000013812765    0.0900
47     H47    -1.4015   -5.7518   10.5769 H        1 ZINC000013812765    0.1000
48     H48     0.0929   -4.9115   11.0583 H        1 ZINC000013812765    0.0600
49     H49    -1.7691   -2.1479   12.5552 H        1 ZINC000013812765    0.1000
50     H50    -0.1266   -2.7593   12.2398 H        1 ZINC000013812765    0.0600
51     H51    -0.6634   -0.9569   10.6516 H        1 ZINC000013812765    0.0900
52     H52    -2.1373   -1.8177   10.1438 H        1 ZINC000013812765    0.0600
53     H53    -1.4038   -0.3555    8.9844 H        1 ZINC000013812765    0.1300
54     H54    -1.2412    0.8410    6.8403 H        1 ZINC000013812765    0.1300
@<TRIPOS>BOND
1     1     2     1
2     1     34    1
3     1     35    1
4     1     36    1
5     2     33    1
6     2     3     am
7     3     4     2
8     3     5     1
9     5     6     1
10    5     14    2
11    6     12    ar
12    6     7     ar
13    7     8     1
14    7     9     ar
15    9     10    ar
16    9     37    1
17    10    11    ar
18    10    38    1
19    11    12    ar
20    11    39    1
21    12    13    1
22    14    15    1
23    14    40    1
24    15    33    ar
25    15    16    ar
26    16    17    ar
27    16    41    1
28    17    18    ar
29    18    19    1
30    18    32    ar
31    19    20    1
32    19    42    1
33    20    31    ar
34    20    21    ar
35    21    22    ar
36    21    43    1
37    22    23    ar
38    22    44    1
39    23    24    1
40    23    30    ar
41    24    29    1
42    24    25    1
43    25    26    1
44    25    45    1
45    25    46    1
46    26    27    1
47    26    47    1
48    26    48    1
49    27    28    1
50    28    29    1
51    28    49    1
52    28    50    1
53    29    51    1
54    29    52    1
55    30    31    ar
56    30    53    1
57    31    54    1
58    32    33    ar
@<TRIPOS>SUBSTRUCTURE
1   ZINC000013812765 1     RESIDUE    1   A     ZIN   1


@<TRIPOS>MOLECULE
CN(C1=NC(NC2=CC(CO)=CC=C2)=NC=C1C=C3C4=C(Cl)C=CC=C4Cl)C3=O
45    48    1     0     0
SMALL
USER_CHARGES
@<TRIPOS>ATOM
1      C1      0.6801    1.4233    0.0442 C.3      1 ZINC000002047503    0.0700
2      N2      0.5018   -0.0307    0.0263 N.am     1 ZINC000002047503   -0.5100
3      C3      0.5410   -0.6928   -1.1460 C.2      1 ZINC000002047503    0.5600
4      O4      0.7241   -0.0795   -2.1825 O.2      1 ZINC000002047503   -0.5000
5      C5      0.3650   -2.1463   -1.1810 C.2      1 ZINC000002047503   -0.1600
6      C6      0.4087   -2.8736   -2.4710 C.ar     1 ZINC000002047503   -0.0100
7      C7      1.6198   -3.3699   -2.9550 C.ar     1 ZINC000002047503   -0.0100
8      Cl8     3.0806   -3.1371   -2.0464 Cl       1 ZINC000002047503   -0.0500
9      C9      1.6536   -4.0470   -4.1582 C.ar     1 ZINC000002047503   -0.1100
10     C10     0.4905   -4.2333   -4.8834 C.ar     1 ZINC000002047503   -0.0900
11     C11    -0.7133   -3.7436   -4.4095 C.ar     1 ZINC000002047503   -0.1100
12     C12    -0.7620   -3.0705   -3.2045 C.ar     1 ZINC000002047503   -0.0100
13     Cl13   -2.2737   -2.4566   -2.6114 Cl       1 ZINC000002047503   -0.0500
14     C14     0.1602   -2.8269   -0.0108 C.2      1 ZINC000002047503    0.0300
15     C15     0.1240   -2.1054    1.2042 C.ar     1 ZINC000002047503   -0.2800
16     C16    -0.0824   -2.7559    2.4300 C.ar     1 ZINC000002047503    0.2600
17     N17    -0.1064   -2.0318    3.5333 N.ar     1 ZINC000002047503   -0.5700
18     C18     0.0603   -0.7144    3.4949 C.ar     1 ZINC000002047503    0.6100
19     N19     0.0261   -0.0045    4.6799 N.pl3    1 ZINC000002047503   -0.6300
20     C20    -0.0636   -0.6830    5.8989 C.ar     1 ZINC000002047503    0.1500
21     C21     0.5507   -1.9189    6.0543 C.ar     1 ZINC000002047503   -0.1000
22     C22     0.4601   -2.5867    7.2600 C.ar     1 ZINC000002047503   -0.1000
23     C23    -0.2415   -2.0263    8.3114 C.ar     1 ZINC000002047503   -0.1100
24     C24    -0.8548   -0.7960    8.1599 C.ar     1 ZINC000002047503   -0.0700
25     C25    -1.6189   -0.1893    9.3084 C.3      1 ZINC000002047503    0.1200
26     O26    -0.7375    0.6144   10.0953 O.3      1 ZINC000002047503   -0.5700
27     C27    -0.7626   -0.1200    6.9593 C.ar     1 ZINC000002047503   -0.1200
28     N28     0.2583   -0.0565    2.3629 N.ar     1 ZINC000002047503   -0.6000
29     C29     0.3023   -0.7050    1.2045 C.ar     1 ZINC000002047503    0.4700
30     H30     1.7394    1.6582    0.1486 H        1 ZINC000002047503    0.0700
31     H31     0.3041    1.8469   -0.8871 H        1 ZINC000002047503    0.0900
32     H32     0.1296    1.8465    0.8843 H        1 ZINC000002047503    0.1000
33     H33     2.5903   -4.4316   -4.5340 H        1 ZINC000002047503    0.1400
34     H34     0.5224   -4.7632   -5.8240 H        1 ZINC000002047503    0.1500
35     H35    -1.6177   -3.8918   -4.9809 H        1 ZINC000002047503    0.1400
36     H36     0.0279   -3.8988   -0.0161 H        1 ZINC000002047503    0.1500
37     H37    -0.2190   -3.8265    2.4700 H        1 ZINC000002047503    0.1900
38     H38     0.0643    0.9647    4.6660 H        1 ZINC000002047503    0.4300
39     H39     1.0983   -2.3575    5.2333 H        1 ZINC000002047503    0.1400
40     H40     0.9376   -3.5478    7.3815 H        1 ZINC000002047503    0.1300
41     H41    -0.3111   -2.5507    9.2530 H        1 ZINC000002047503    0.1300
42     H42    -2.4268    0.4309    8.9201 H        1 ZINC000002047503    0.0600
43     H43    -2.0360   -0.9837    9.9273 H        1 ZINC000002047503    0.0600
44     H44    -1.1626    1.0372   10.8540 H        1 ZINC000002047503    0.3800
45     H45    -1.2417    0.8407    6.8416 H        1 ZINC000002047503    0.1300
@<TRIPOS>BOND
1     1     2     1
2     1     30    1
3     1     31    1
4     1     32    1
5     2     29    1
6     2     3     am
7     3     4     2
8     3     5     1
9     5     6     1
10    5     14    2
11    6     12    ar
12    6     7     ar
13    7     8     1
14    7     9     ar
15    9     10    ar
16    9     33    1
17    10    11    ar
18    10    34    1
19    11    12    ar
20    11    35    1
21    12    13    1
22    14    15    1
23    14    36    1
24    15    29    ar
25    15    16    ar
26    16    17    ar
27    16    37    1
28    17    18    ar
29    18    19    1
30    18    28    ar
31    19    20    1
32    19    38    1
33    20    27    ar
34    20    21    ar
35    21    22    ar
36    21    39    1
37    22    23    ar
38    22    40    1
39    23    24    ar
40    23    41    1
41    24    25    1
42    24    27    ar
43    25    26    1
44    25    42    1
45    25    43    1
46    26    44    1
47    27    45    1
48    28    29    ar
@<TRIPOS>SUBSTRUCTURE
1   ZINC000002047503 1     RESIDUE    1   A     ZIN   1


@<TRIPOS>MOLECULE
CC1=C(SC(=N1)NC(=O)C(C(C)C)N2C(=O)C3=CC=CC=C3NC2=O)C4=NN=C(O4)C
51    54    1     0     0
SMALL
USER_CHARGES
@<TRIPOS>ATOM
1      C1     -1.5975    1.2481   -0.1555 C.3      1 ZINC000201766557   -0.0600
2      C2     -1.1601   -0.1935   -0.1194 C.2      1 ZINC000201766557    0.1700
3      N3     -0.7240   -0.8901   -1.1304 N.2      1 ZINC000201766557   -0.2800
4      N4     -0.4403   -2.0834   -0.7422 N.2      1 ZINC000201766557   -0.2700
5      C5     -0.6886   -2.1907    0.5456 C.2      1 ZINC000201766557    0.2600
6      C6     -0.4986   -3.3896    1.3739 C.2      1 ZINC000201766557   -0.2200
7      C7     -0.0300   -4.5856    0.9483 C.2      1 ZINC000201766557    0.1900
8      C8      0.3704   -4.8457   -0.4811 C.3      1 ZINC000201766557   -0.0900
9      N9      0.0465   -5.5003    1.8877 N.2      1 ZINC000201766557   -0.4700
10     C10    -0.3277   -5.1551    3.0826 C.2      1 ZINC000201766557    0.2900
11     N11    -0.3133   -5.9908    4.1896 N.am     1 ZINC000201766557   -0.6300
12     C12     0.1112   -7.2641    4.0672 C.2      1 ZINC000201766557    0.5000
13     O13     0.3902   -7.7079    2.9736 O.2      1 ZINC000201766557   -0.4300
14     C14     0.2394   -8.1364    5.2894 C.3      1 ZINC000201766557    0.1400
15     H15    -0.6437   -8.0148    5.9168 H        1 ZINC000201766557    0.1400
16     C16     1.4855   -7.7292    6.0783 C.3      1 ZINC000201766557   -0.1100
17     C17     1.3071   -6.3076    6.6153 C.3      1 ZINC000201766557   -0.1600
18     C18     1.6867   -8.6947    7.2480 C.3      1 ZINC000201766557   -0.1400
19     N19     0.3576   -9.5378    4.8790 N.am     1 ZINC000201766557   -0.5400
20     C20     1.3855   -9.9112    4.1008 C.2      1 ZINC000201766557    0.7100
21     O21     2.1921   -9.0684    3.7585 O.2      1 ZINC000201766557   -0.5100
22     N22     1.5615  -11.1769    3.6842 N.am     1 ZINC000201766557   -0.6400
23     C23     0.6669  -12.1724    4.0495 C.ar     1 ZINC000201766557    0.2000
24     C24     0.8295  -13.4840    3.6317 C.ar     1 ZINC000201766557   -0.1700
25     C25    -0.0841  -14.4448    4.0184 C.ar     1 ZINC000201766557   -0.0400
26     C26    -1.1636  -14.1110    4.8212 C.ar     1 ZINC000201766557   -0.1600
27     C27    -1.3420  -12.8108    5.2465 C.ar     1 ZINC000201766557   -0.0100
28     C28    -0.4277  -11.8326    4.8639 C.ar     1 ZINC000201766557   -0.2000
29     C29    -0.5669  -10.4302    5.2955 C.2      1 ZINC000201766557    0.5700
30     O30    -1.4922  -10.0847    6.0046 O.2      1 ZINC000201766557   -0.4900
31     S31    -0.8333   -3.5223    3.0985 S.3      1 ZINC000201766557    0.1900
32     O32    -1.1442   -0.9917    0.9643 O.3      1 ZINC000201766557   -0.2200
33     H33    -0.7407    1.8928    0.0405 H        1 ZINC000201766557    0.1000
34     H34    -2.0084    1.4787   -1.1384 H        1 ZINC000201766557    0.1100
35     H35    -2.3598    1.4157    0.6054 H        1 ZINC000201766557    0.0900
36     H36     1.4263   -4.6087   -0.6115 H        1 ZINC000201766557    0.0900
37     H37     0.2013   -5.8955   -0.7205 H        1 ZINC000201766557    0.0800
38     H38    -0.2269   -4.2208   -1.1451 H        1 ZINC000201766557    0.1000
39     H39    -0.6088   -5.6588    5.0518 H        1 ZINC000201766557    0.4300
40     H40     2.3569   -7.7639    5.4244 H        1 ZINC000201766557    0.1100
41     H41     0.3845   -6.2505    7.1928 H        1 ZINC000201766557    0.0700
42     H42     2.1523   -6.0520    7.2544 H        1 ZINC000201766557    0.0800
43     H43     1.2575   -5.6077    5.7812 H        1 ZINC000201766557    0.0600
44     H44     1.8138   -9.7074    6.8654 H        1 ZINC000201766557    0.0500
45     H45     2.5744   -8.4046    7.8100 H        1 ZINC000201766557    0.0700
46     H46     0.8153   -8.6600    7.9018 H        1 ZINC000201766557    0.0600
47     H47     2.3212  -11.3964    3.1224 H        1 ZINC000201766557    0.4400
48     H48     1.6673  -13.7535    3.0057 H        1 ZINC000201766557    0.1400
49     H49     0.0437  -15.4663    3.6918 H        1 ZINC000201766557    0.1400
50     H50    -1.8696  -14.8734    5.1154 H        1 ZINC000201766557    0.1400
51     H51    -2.1842  -12.5536    5.8716 H        1 ZINC000201766557    0.1500
@<TRIPOS>BOND
1     1     2     1
2     1     33    1
3     1     34    1
4     1     35    1
5     2     32    1
6     2     3     2
7     3     4     1
8     4     5     2
9     5     6     1
10    5     32    1
11    6     31    1
12    6     7     2
13    7     8     1
14    7     9     1
15    8     36    1
16    8     37    1
17    8     38    1
18    9     10    2
19    10    11    1
20    10    31    1
21    11    12    am
22    11    39    1
23    12    13    2
24    12    14    1
25    14    15    1
26    14    16    1
27    14    19    1
28    16    17    1
29    16    18    1
30    16    40    1
31    17    41    1
32    17    42    1
33    17    43    1
34    18    44    1
35    18    45    1
36    18    46    1
37    19    29    am
38    19    20    am
39    20    21    2
40    20    22    am
41    22    23    1
42    22    47    1
43    23    28    ar
44    23    24    ar
45    24    25    ar
46    24    48    1
47    25    26    ar
48    25    49    1
49    26    27    ar
50    26    50    1
51    27    28    ar
52    27    51    1
53    28    29    1
54    29    30    2
@<TRIPOS>SUBSTRUCTURE
1   ZINC000201766557 1     RESIDUE    1   A     ZIN   1


@<TRIPOS>MOLECULE
CCOC(=O)C1=C(N=C(S1)NC(=O)C(C(C)C)N2C(=O)C3=CC=CC=C3NC2=O)C
52    54    1     0     0
SMALL
USER_CHARGES
@<TRIPOS>ATOM
1      C1     -0.9120    1.3260    0.5315 C.3      1 ZINC000201766361   -0.1500
2      C2     -0.4354   -0.1023    0.2598 C.3      1 ZINC000201766361    0.0600
3      O3      0.3784   -0.5478    1.3467 O.3      1 ZINC000201766361   -0.3500
4      C4      0.8824   -1.7966    1.2629 C.2      1 ZINC000201766361    0.5500
5      O5      0.6367   -2.4879    0.2924 O.2      1 ZINC000201766361   -0.5000
6      C6      1.7233   -2.3189    2.3380 C.2      1 ZINC000201766361   -0.3700
7      C7      2.3015   -3.5583    2.3802 C.2      1 ZINC000201766361    0.2000
8      C8      2.1376   -4.5782    1.2829 C.3      1 ZINC000201766361   -0.0900
9      N9      3.0095   -3.7788    3.4578 N.2      1 ZINC000201766361   -0.5100
10     C10     3.0765   -2.8195    4.3349 C.2      1 ZINC000201766361    0.2500
11     N11     3.7795   -2.8868    5.5248 N.am     1 ZINC000201766361   -0.6100
12     C12     3.7838   -1.8333    6.3655 C.2      1 ZINC000201766361    0.5100
13     O13     3.2522   -0.7939    6.0377 O.2      1 ZINC000201766361   -0.4700
14     C14     4.4492   -1.9472    7.7128 C.3      1 ZINC000201766361    0.1400
15     H15     5.4170   -2.4359    7.5999 H        1 ZINC000201766361    0.1500
16     C16     3.5663   -2.7744    8.6494 C.3      1 ZINC000201766361   -0.1100
17     C17     3.4698   -4.2085    8.1248 C.3      1 ZINC000201766361   -0.1600
18     C18     4.1790   -2.7843   10.0513 C.3      1 ZINC000201766361   -0.1400
19     N19     4.6407   -0.6091    8.2775 N.am     1 ZINC000201766361   -0.5400
20     C20     3.5707    0.1684    8.5053 C.2      1 ZINC000201766361    0.7100
21     O21     2.4679   -0.2654    8.2339 O.2      1 ZINC000201766361   -0.5200
22     N22     3.6659    1.4060    9.0212 N.am     1 ZINC000201766361   -0.6400
23     C23     4.9031    1.9432    9.3464 C.ar     1 ZINC000201766361    0.2000
24     C24     5.0244    3.2167    9.8797 C.ar     1 ZINC000201766361   -0.1700
25     C25     6.2750    3.7137   10.1900 C.ar     1 ZINC000201766361   -0.0400
26     C26     7.4121    2.9511    9.9735 C.ar     1 ZINC000201766361   -0.1600
27     C27     7.3110    1.6817    9.4431 C.ar     1 ZINC000201766361   -0.0100
28     C28     6.0558    1.1687    9.1263 C.ar     1 ZINC000201766361   -0.2000
29     C29     5.8903   -0.1837    8.5640 C.2      1 ZINC000201766361    0.5700
30     O30     6.8540   -0.8963    8.3593 O.2      1 ZINC000201766361   -0.4900
31     S31     2.1806   -1.4625    3.8083 S.3      1 ZINC000201766361    0.3400
32     H32    -0.0488    1.9839    0.6326 H        1 ZINC000201766361    0.0700
33     H33    -1.5327    1.6657   -0.2976 H        1 ZINC000201766361    0.0800
34     H34    -1.4939    1.3458    1.4530 H        1 ZINC000201766361    0.0700
35     H35    -1.2985   -0.7603    0.1587 H        1 ZINC000201766361    0.0700
36     H36     0.1465   -0.1221   -0.6616 H        1 ZINC000201766361    0.0700
37     H37     2.9319   -4.4513    0.5473 H        1 ZINC000201766361    0.0900
38     H38     2.1925   -5.5807    1.7075 H        1 ZINC000201766361    0.0800
39     H39     1.1700   -4.4405    0.8004 H        1 ZINC000201766361    0.1000
40     H40     4.2692   -3.6922    5.7540 H        1 ZINC000201766361    0.4300
41     H41     2.5697   -2.3351    8.6915 H        1 ZINC000201766361    0.1100
42     H42     4.4723   -4.6163    7.9954 H        1 ZINC000201766361    0.0700
43     H43     2.9181   -4.8201    8.8388 H        1 ZINC000201766361    0.0800
44     H44     2.9502   -4.2107    7.1667 H        1 ZINC000201766361    0.0600
45     H45     4.2478   -1.7627   10.4250 H        1 ZINC000201766361    0.0500
46     H46     3.5500   -3.3737   10.7185 H        1 ZINC000201766361    0.0700
47     H47     5.1756   -3.2237   10.0092 H        1 ZINC000201766361    0.0600
48     H48     2.8619    1.9287    9.1671 H        1 ZINC000201766361    0.4400
49     H49     4.1442    3.8184   10.0516 H        1 ZINC000201766361    0.1400
50     H50     6.3680    4.7064   10.6052 H        1 ZINC000201766361    0.1400
51     H51     8.3832    3.3534   10.2212 H        1 ZINC000201766361    0.1400
52     H52     8.1988    1.0900    9.2751 H        1 ZINC000201766361    0.1500
@<TRIPOS>BOND
1     1     2     1
2     1     32    1
3     1     33    1
4     1     34    1
5     2     3     1
6     2     35    1
7     2     36    1
8     3     4     1
9     4     5     2
10    4     6     1
11    6     31    1
12    6     7     2
13    7     8     1
14    7     9     1
15    8     37    1
16    8     38    1
17    8     39    1
18    9     10    2
19    10    11    1
20    10    31    1
21    11    12    am
22    11    40    1
23    12    13    2
24    12    14    1
25    14    15    1
26    14    16    1
27    14    19    1
28    16    17    1
29    16    18    1
30    16    41    1
31    17    42    1
32    17    43    1
33    17    44    1
34    18    45    1
35    18    46    1
36    18    47    1
37    19    29    am
38    19    20    am
39    20    21    2
40    20    22    am
41    22    23    1
42    22    48    1
43    23    28    ar
44    23    24    ar
45    24    25    ar
46    24    49    1
47    25    26    ar
48    25    50    1
49    26    27    ar
50    26    51    1
51    27    28    ar
52    27    52    1
53    28    29    1
54    29    30    2
@<TRIPOS>SUBSTRUCTURE
1   ZINC000201766361 1     RESIDUE    1   A     ZIN   1


@<TRIPOS>MOLECULE
COC1=C(N(S(=O)(C2=CC=CC=C2)=O)CC(NC3=C(C)C=C(Cl)C=C3)=O)C=CC(OC)=C1
  55   57    0    0    0
SMALL
USER_CHARGES
NO_NAME
@<TRIPOS>ATOM
    1 C1       -0.0532     1.4389     0.0482 C.3    1 <0>       0.0300
    2 O2       -0.0261     0.0102     0.0328 O.3    1 <0>      -0.3100
    3 C3       -1.2259    -0.6301     0.0361 C.ar   1 <0>       0.1800
    4 C4       -2.4023     0.1034     0.0479 C.ar   1 <0>      -0.2500
    5 C5       -3.6237    -0.5447     0.0512 C.ar   1 <0>      -0.0300
    6 C6       -3.6741    -1.9301     0.0431 C.ar   1 <0>       0.0500
    7 N7       -4.9128    -2.5874     0.0465 N.am   1 <0>      -0.9100
    8 C8       -5.6191    -2.8255    -1.2147 C.3    1 <0>       0.1100
    9 C9       -5.1093    -4.0965    -1.8438 C.2    1 <0>       0.4900
   10 O10      -4.2413    -4.7401    -1.2929 O.2    1 <0>      -0.4700
   11 N11      -5.6178    -4.5179    -3.0187 N.am   1 <0>      -0.6700
   12 C12      -5.0802    -5.6458    -3.6496 C.ar   1 <0>       0.1500
   13 C13      -4.6073    -6.7080    -2.8907 C.ar   1 <0>      -0.1000
   14 C14      -4.0772    -7.8198    -3.5158 C.ar   1 <0>      -0.1000
   15 C15      -4.0168    -7.8755    -4.8970 C.ar   1 <0>      -0.0500
   16 Cl16     -3.3499    -9.2743    -5.6795 Cl     1 <0>      -0.0700
   17 C17      -4.4875    -6.8180    -5.6558 C.ar   1 <0>      -0.0900
   18 C18      -5.0240    -5.7068    -5.0360 C.ar   1 <0>      -0.1000
   19 C19      -5.5363    -4.5558    -5.8629 C.3    1 <0>      -0.1100
   20 S20      -5.5772    -3.0945     1.4761 S.o2   1 <0>       2.6900
   21 O21      -6.3509    -4.2471     1.1724 O.2    1 <0>      -0.9400
   22 O22      -4.5242    -3.0946     2.4302 O.2    1 <0>      -0.9300
   23 C23      -6.7157    -1.8526     1.9917 C.ar   1 <0>      -0.6800
   24 C24      -6.2862    -0.8103     2.7917 C.ar   1 <0>      -0.0200
   25 C25      -7.1794     0.1640     3.1963 C.ar   1 <0>      -0.1400
   26 C26      -8.5021     0.0964     2.8004 C.ar   1 <0>      -0.0600
   27 C27      -8.9315    -0.9454     1.9996 C.ar   1 <0>      -0.1400
   28 C28      -8.0373    -1.9174     1.5915 C.ar   1 <0>      -0.0200
   29 C29      -2.4928    -2.6686     0.0312 C.ar   1 <0>       0.2000
   30 O30      -2.5394    -4.0278     0.0233 O.3    1 <0>      -0.2600
   31 C31      -1.2891    -4.7197     0.0113 C.3    1 <0>       0.0200
   32 C32      -1.2714    -2.0166     0.0218 C.ar   1 <0>      -0.2500
   33 H33       0.9673     1.8217     0.0437 H      1 <0>       0.1000
   34 H34      -0.5812     1.8017    -0.8337 H      1 <0>       0.0600
   35 H35      -0.5664     1.7829     0.9461 H      1 <0>       0.0600
   36 H36      -2.3646     1.1827     0.0549 H      1 <0>       0.1400
   37 H37      -4.5389     0.0287     0.0604 H      1 <0>       0.1400
   38 H38      -6.6876    -2.9193    -1.0207 H      1 <0>       0.1100
   39 H39      -5.4449    -1.9895    -1.8921 H      1 <0>       0.1200
   40 H40      -6.3563    -4.0397    -3.4270 H      1 <0>       0.4100
   41 H41      -4.6536    -6.6647    -1.8126 H      1 <0>       0.1500
   42 H42      -3.7092    -8.6463    -2.9259 H      1 <0>       0.1400
   43 H43      -4.4392    -6.8639    -6.7338 H      1 <0>       0.1400
   44 H44      -6.5909    -4.7125    -6.0898 H      1 <0>       0.0700
   45 H45      -5.4189    -3.6269    -5.3048 H      1 <0>       0.0700
   46 H46      -4.9698    -4.4955    -6.7921 H      1 <0>       0.0700
   47 H47      -5.2527    -0.7575     3.1010 H      1 <0>       0.1400
   48 H48      -6.8439     0.9779     3.8219 H      1 <0>       0.1300
   49 H49      -9.2001     0.8573     3.1170 H      1 <0>       0.1300
   50 H50      -9.9650    -0.9984     1.6905 H      1 <0>       0.1300
   51 H51      -8.3728    -2.7313     0.9659 H      1 <0>       0.1400
   52 H52      -1.4688    -5.7948     0.0059 H      1 <0>       0.1000
   53 H53      -0.7280    -4.4407    -0.8805 H      1 <0>       0.0500
   54 H54      -0.7168    -4.4515     0.8993 H      1 <0>       0.0600
   55 H55      -0.3544    -2.5872     0.0122 H      1 <0>       0.1400
@<TRIPOS>BOND
   1    1    2 1
   2    1   33 1
   3    1   34 1
   4    1   35 1
   5    2    3 1
   6    3   32 ar
   7    3    4 ar
   8    4    5 ar
   9    4   36 1
  10    5    6 ar
  11    5   37 1
  12    6    7 1
  13    6   29 ar
  14    7    8 1
  15    7   20 am
  16    8    9 1
  17    8   38 1
  18    8   39 1
  19    9   10 2
  20    9   11 am
  21   11   12 1
  22   11   40 1
  23   12   18 ar
  24   12   13 ar
  25   13   14 ar
  26   13   41 1
  27   14   15 ar
  28   14   42 1
  29   15   16 1
  30   15   17 ar
  31   17   18 ar
  32   17   43 1
  33   18   19 1
  34   19   44 1
  35   19   45 1
  36   19   46 1
  37   20   21 2
  38   20   22 2
  39   20   23 1
  40   23   28 ar
  41   23   24 ar
  42   24   25 ar
  43   24   47 1
  44   25   26 ar
  45   25   48 1
  46   26   27 ar
  47   26   49 1
  48   27   28 ar
  49   27   50 1
  50   28   51 1
  51   29   30 1
  52   29   32 ar
  53   30   31 1
  54   31   52 1
  55   31   53 1
  56   31   54 1
  57   32   55 1


@<TRIPOS>MOLECULE
CC[C@@H](C)[C@@H](C1=CC=CC=C1)C(NCC(NC2=C(C)C=C(C)C=C2C)=O)=O
57    58    1     0     0
SMALL
USER_CHARGES
@<TRIPOS>ATOM
1      C1     -3.8810    1.4479   -4.5656 C.3      1 ZINC000060389978   -0.1700
2      C2     -3.7795   -0.0787   -4.5621 C.3      1 ZINC000060389978   -0.1100
3      C3     -4.7035   -0.6487   -3.4841 C.3      1 ZINC000060389978   -0.0800
4      H4     -5.7050   -0.2370   -3.6092 H        1 ZINC000060389978    0.0800
5      C5     -4.7586   -2.1723   -3.6132 C.3      1 ZINC000060389978   -0.1600
6      C6     -4.1667   -0.2731   -2.1015 C.3      1 ZINC000060389978   -0.0600
7      H7     -3.1097   -0.5318   -2.0395 H        1 ZINC000060389978    0.1000
8      C8     -4.9312   -1.0270   -1.0440 C.2      1 ZINC000060389978    0.5300
9      O9     -5.8074   -0.4706   -0.4165 O.2      1 ZINC000060389978   -0.5300
10     N10    -4.6414   -2.3195   -0.7955 N.am     1 ZINC000060389978   -0.7200
11     C11    -5.4556   -3.0836    0.1528 C.3      1 ZINC000060389978    0.1000
12     C12    -4.9260   -4.4912    0.2494 C.2      1 ZINC000060389978    0.5100
13     O13    -3.9632   -4.8234   -0.4091 O.2      1 ZINC000060389978   -0.5100
14     N14    -5.5223   -5.3809    1.0676 N.am     1 ZINC000060389978   -0.6700
15     C15    -5.0120   -6.6789    1.1805 C.ar     1 ZINC000060389978    0.1200
16     C16    -5.8354   -7.7729    0.9482 C.ar     1 ZINC000060389978   -0.0800
17     C17    -7.2800   -7.5636    0.5735 C.3      1 ZINC000060389978   -0.1100
18     C18    -5.3287   -9.0528    1.0605 C.ar     1 ZINC000060389978   -0.1200
19     C19    -4.0033   -9.2456    1.4042 C.ar     1 ZINC000060389978   -0.0800
20     C20    -3.4539  -10.6436    1.5263 C.3      1 ZINC000060389978   -0.1200
21     C21    -3.1807   -8.1584    1.6357 C.ar     1 ZINC000060389978   -0.1200
22     C22    -3.6798   -6.8758    1.5194 C.ar     1 ZINC000060389978   -0.0600
23     C23    -2.7827   -5.6916    1.7719 C.3      1 ZINC000060389978   -0.1200
24     C24    -4.3349    1.2084   -1.8828 C.ar     1 ZINC000060389978   -0.0600
25     C25    -5.5753    1.7953   -2.0500 C.ar     1 ZINC000060389978   -0.0800
26     C26    -5.7296    3.1543   -1.8494 C.ar     1 ZINC000060389978   -0.1200
27     C27    -4.6436    3.9263   -1.4811 C.ar     1 ZINC000060389978   -0.1200
28     C28    -3.4035    3.3392   -1.3130 C.ar     1 ZINC000060389978   -0.1200
29     C29    -3.2501    1.9795   -1.5094 C.ar     1 ZINC000060389978   -0.1200
30     H30    -3.3801    1.8433   -5.4493 H        1 ZINC000060389978    0.0500
31     H31    -4.9304    1.7423   -4.5806 H        1 ZINC000060389978    0.0500
32     H32    -3.4047    1.8458   -3.6695 H        1 ZINC000060389978    0.0700
33     H33    -4.0769   -0.4649   -5.5370 H        1 ZINC000060389978    0.0700
34     H34    -2.7513   -0.3740   -4.3526 H        1 ZINC000060389978    0.0600
35     H35    -3.7901   -2.5948   -3.3457 H        1 ZINC000060389978    0.0600
36     H36    -5.5240   -2.5661   -2.9445 H        1 ZINC000060389978    0.0600
37     H37    -5.0010   -2.4413   -4.6413 H        1 ZINC000060389978    0.0600
38     H38    -3.8936   -2.7439   -1.2446 H        1 ZINC000060389978    0.4100
39     H39    -5.4109   -2.6105    1.1337 H        1 ZINC000060389978    0.1000
40     H40    -6.4892   -3.1072   -0.1924 H        1 ZINC000060389978    0.1000
41     H41    -6.3051   -5.1214    1.5782 H        1 ZINC000060389978    0.4100
42     H42    -7.3800   -7.5802   -0.5117 H        1 ZINC000060389978    0.0700
43     H43    -7.8865   -8.3591    1.0065 H        1 ZINC000060389978    0.0700
44     H44    -7.6184   -6.6002    0.9549 H        1 ZINC000060389978    0.0600
45     H45    -5.9685   -9.9039    0.8800 H        1 ZINC000060389978    0.1300
46     H46    -3.0614  -10.9653    0.5616 H        1 ZINC000060389978    0.0700
47     H47    -2.6539  -10.6562    2.2665 H        1 ZINC000060389978    0.0700
48     H48    -4.2490  -11.3204    1.8390 H        1 ZINC000060389978    0.0700
49     H49    -2.1460   -8.3123    1.9040 H        1 ZINC000060389978    0.1300
50     H50    -2.4232   -5.2988    0.8208 H        1 ZINC000060389978    0.0900
51     H51    -3.3423   -4.9172    2.2966 H        1 ZINC000060389978    0.0600
52     H52    -1.9337   -6.0022    2.3809 H        1 ZINC000060389978    0.0600
53     H53    -6.4237    1.1922   -2.3378 H        1 ZINC000060389978    0.1200
54     H54    -6.6985    3.6130   -1.9808 H        1 ZINC000060389978    0.1200
55     H55    -4.7640    4.9882   -1.3251 H        1 ZINC000060389978    0.1200
56     H56    -2.5550    3.9424   -1.0256 H        1 ZINC000060389978    0.1200
57     H57    -2.2812    1.5209   -1.3781 H        1 ZINC000060389978    0.1200
@<TRIPOS>BOND
1     1     2     1
2     1     30    1
3     1     31    1
4     1     32    1
5     2     3     1
6     2     33    1
7     2     34    1
8     3     4     1
9     3     5     1
10    3     6     1
11    5     35    1
12    5     36    1
13    5     37    1
14    6     7     1
15    6     8     1
16    6     24    1
17    8     9     2
18    8     10    am
19    10    11    1
20    10    38    1
21    11    12    1
22    11    39    1
23    11    40    1
24    12    13    2
25    12    14    am
26    14    15    1
27    14    41    1
28    15    22    ar
29    15    16    ar
30    16    17    1
31    16    18    ar
32    17    42    1
33    17    43    1
34    17    44    1
35    18    19    ar
36    18    45    1
37    19    20    1
38    19    21    ar
39    20    46    1
40    20    47    1
41    20    48    1
42    21    22    ar
43    21    49    1
44    22    23    1
45    23    50    1
46    23    51    1
47    23    52    1
48    24    29    ar
49    24    25    ar
50    25    26    ar
51    25    53    1
52    26    27    ar
53    26    54    1
54    27    28    ar
55    27    55    1
56    28    29    ar
57    28    56    1
58    29    57    1
@<TRIPOS>SUBSTRUCTURE
1   ZINC000060389978 1     RESIDUE    1   A     ZIN   1


@<TRIPOS>MOLECULE
C1=CC(=CC=C1C=C2C(=O)N=C(S2)N)O
  23   24    0    0    0
SMALL
USER_CHARGES
NO_NAME
@<TRIPOS>ATOM
    1 N1        0.5037     0.8892     2.1759 N.2    1 <0>      -0.6600
    2 C2        0.4473    -0.3490     1.7690 C.2    1 <0>       0.4100
    3 N3       -0.4273    -1.3121     2.1987 N.am   1 <0>      -0.6500
    4 C4       -0.3438    -2.5238     1.6754 C.2    1 <0>       0.5600
    5 O5       -1.0865    -3.4290     2.0074 O.2    1 <0>      -0.4700
    6 C6        0.7058    -2.7001     0.6667 C.2    1 <0>      -0.2200
    7 C7        1.0113    -3.8265    -0.0251 C.2    1 <0>       0.0700
    8 C8        0.1383    -5.0041     0.0665 C.ar   1 <0>      -0.1100
    9 C9       -1.2533    -4.8492     0.0623 C.ar   1 <0>      -0.0300
   10 C10      -2.0669    -5.9565     0.1485 C.ar   1 <0>      -0.1500
   11 C11      -1.5092    -7.2264     0.2400 C.ar   1 <0>       0.1300
   12 O12      -2.3162    -8.3151     0.3248 O.3    1 <0>      -0.5000
   13 C13      -0.1284    -7.3861     0.2447 C.ar   1 <0>      -0.1600
   14 C14       0.6946    -6.2861     0.1526 C.ar   1 <0>      -0.0700
   15 S15       1.4820    -1.1093     0.5478 S.3    1 <0>      -0.0400
   16 H16       1.1633     1.4934     1.8008 H      1 <0>       0.3700
   17 H17      -1.0941    -1.1094     2.8734 H      1 <0>       0.4300
   18 H18       1.8964    -3.8572    -0.6433 H      1 <0>       0.1600
   19 H19      -1.6876    -3.8629    -0.0080 H      1 <0>       0.1300
   20 H20      -3.1404    -5.8382     0.1454 H      1 <0>       0.1300
   21 H21      -2.5543    -8.6958    -0.5316 H      1 <0>       0.3900
   22 H22       0.2996    -8.3750     0.3163 H      1 <0>       0.1300
   23 H23       1.7673    -6.4113     0.1560 H      1 <0>       0.1300
@<TRIPOS>BOND
   1    1    2 2
   2    1   16 1
   3    2   15 1
   4    2    3 1
   5    3    4 am
   6    3   17 1
   7    4    5 2
   8    4    6 1
   9    6    7 2
  10    6   15 1
  11    7    8 1
  12    7   18 1
  13    8   14 ar
  14    8    9 ar
  15    9   10 ar
  16    9   19 1
  17   10   11 ar
  18   10   20 1
  19   11   12 1
  20   11   13 ar
  21   12   21 1
  22   13   14 ar
  23   13   22 1
  24   14   23 1


@<TRIPOS>MOLECULE
C1=CSC(=C1)C2=CC(=NC(=C2C#N)SCC(=O)C3=CC=CS3)C4=CC=CS4
39    42    1     0     0
SMALL
USER_CHARGES
@<TRIPOS>ATOM
1      N1      0.0175   -1.1399   -0.0042 N.1      1 ZINC000008856160   -0.3700
2      C2      0.0021   -0.0041    0.0020 C.1      1 ZINC000008856160    0.2400
3      C3     -0.0173    1.4278    0.0099 C.ar     1 ZINC000008856160   -0.0600
4      C4     -1.2458    2.1315    0.0314 C.ar     1 ZINC000008856160    0.1100
5      C5     -2.5313    1.4104    0.0461 C.2      1 ZINC000008856160   -0.1900
6      C6     -3.5481    1.6460    0.9032 C.2      1 ZINC000008856160   -0.0900
7      C7     -4.6519    0.8424    0.7216 C.2      1 ZINC000008856160   -0.1400
8      C8     -4.5490   -0.0464   -0.2731 C.2      1 ZINC000008856160   -0.2000
9      S9     -2.9819    0.1147   -1.0548 S.3      1 ZINC000008856160    0.1500
10     C10    -1.2063    3.5267    0.0387 C.ar     1 ZINC000008856160   -0.1600
11     C11     0.0282    4.1728    0.0248 C.ar     1 ZINC000008856160    0.2600
12     C12     0.0749    5.6469    0.0324 C.2      1 ZINC000008856160   -0.1800
13     C13     1.2011    6.3914    0.0152 C.2      1 ZINC000008856160   -0.0700
14     C14     0.9916    7.7527    0.0266 C.2      1 ZINC000008856160   -0.1400
15     C15    -0.2921    8.1288    0.0530 C.2      1 ZINC000008856160   -0.1900
16     S16    -1.3279    6.7076    0.0578 S.3      1 ZINC000008856160    0.1500
17     N17     1.1664    3.4820    0.0051 N.ar     1 ZINC000008856160   -0.4800
18     C18     1.1837    2.1599    0.0024 C.ar     1 ZINC000008856160    0.1700
19     S19     2.7254    1.3073   -0.0241 S.3      1 ZINC000008856160    0.0300
20     C20     3.8629    2.7151   -0.0399 C.3      1 ZINC000008856160   -0.1800
21     C21     5.2836    2.2128   -0.0637 C.2      1 ZINC000008856160    0.4400
22     O22     5.5054    1.0188   -0.0695 O.2      1 ZINC000008856160   -0.4300
23     C23     6.3569    3.1306   -0.0794 C.2      1 ZINC000008856160   -0.3100
24     C24     7.6878    2.7990   -0.1069 C.2      1 ZINC000008856160   -0.0300
25     C25     8.5179    3.8914   -0.1169 C.2      1 ZINC000008856160   -0.1600
26     C26     7.8968    5.0788   -0.0982 C.2      1 ZINC000008856160   -0.2200
27     S27     6.2022    4.8821   -0.0742 S.3      1 ZINC000008856160    0.2300
28     H28    -3.4994    2.4043    1.6706 H        1 ZINC000008856160    0.1500
29     H29    -5.5355    0.9235    1.3372 H        1 ZINC000008856160    0.1500
30     H30    -5.3145   -0.7538   -0.5559 H        1 ZINC000008856160    0.1700
31     H31    -2.1221    4.0989    0.0546 H        1 ZINC000008856160    0.1500
32     H32     2.1884    5.9541   -0.0056 H        1 ZINC000008856160    0.1500
33     H33     1.8039    8.4644    0.0155 H        1 ZINC000008856160    0.1500
34     H34    -0.6399    9.1512    0.0652 H        1 ZINC000008856160    0.1700
35     H35     3.6773    3.3223   -0.9258 H        1 ZINC000008856160    0.1300
36     H36     3.7061    3.3190    0.8539 H        1 ZINC000008856160    0.1300
37     H37     8.0462    1.7803   -0.1192 H        1 ZINC000008856160    0.1600
38     H38     9.5939    3.8009   -0.1378 H        1 ZINC000008856160    0.1500
39     H39     8.4018    6.0334   -0.1027 H        1 ZINC000008856160    0.1700
@<TRIPOS>BOND
1     1     2     3
2     2     3     1
3     3     18    ar
4     3     4     ar
5     4     5     1
6     4     10    ar
7     5     9     1
8     5     6     2
9     6     7     1
10    6     28    1
11    7     8     2
12    7     29    1
13    8     9     1
14    8     30    1
15    10    11    ar
16    10    31    1
17    11    12    1
18    11    17    ar
19    12    16    1
20    12    13    2
21    13    14    1
22    13    32    1
23    14    15    2
24    14    33    1
25    15    16    1
26    15    34    1
27    17    18    ar
28    18    19    1
29    19    20    1
30    20    21    1
31    20    35    1
32    20    36    1
33    21    22    2
34    21    23    1
35    23    27    1
36    23    24    2
37    24    25    1
38    24    37    1
39    25    26    2
40    25    38    1
41    26    27    1
42    26    39    1
@<TRIPOS>SUBSTRUCTURE
1   ZINC000008856160 1     RESIDUE    1   A     ZIN   1


@<TRIPOS>MOLECULE
CC1=C(C2=C(CCC(O2)(C)COC3=CC=C(C=C3)CC4C(=O)NC(=O)S4)C(=C1O)C)C
57    60    1     0     0
SMALL
USER_CHARGES
@<TRIPOS>ATOM
1      C1     -0.0184    1.5028    0.0103 C.3      1 ZINC000000968276   -0.1100
2      C2      0.0021   -0.0041    0.0020 C.ar     1 ZINC000000968276   -0.0800
3      C3      0.0057   -0.6883   -1.1958 C.ar     1 ZINC000000968276   -0.1000
4      C4     -0.0085    0.0744   -2.4954 C.3      1 ZINC000000968276   -0.1100
5      C5      0.0229   -2.0794   -1.2093 C.ar     1 ZINC000000968276    0.1400
6      C6      0.0358   -2.7783   -0.0153 C.ar     1 ZINC000000968276   -0.1500
7      C7      0.0480   -4.2857    0.0127 C.3      1 ZINC000000968276   -0.0700
8      C8      0.4841   -4.8237   -1.3523 C.3      1 ZINC000000968276   -0.1500
9      C9     -0.3235   -4.0984   -2.4364 C.3      1 ZINC000000968276    0.1200
10     C10    -1.8194   -4.2530   -2.1549 C.3      1 ZINC000000968276   -0.1700
11     C11     0.0067   -4.6907   -3.8079 C.3      1 ZINC000000968276    0.0800
12     O12    -0.7478   -4.0119   -4.8140 O.3      1 ZINC000000968276   -0.3100
13     C13    -0.5703   -4.4194   -6.0983 C.ar     1 ZINC000000968276    0.1200
14     C14     0.3075   -5.4551   -6.3837 C.ar     1 ZINC000000968276   -0.2100
15     C15     0.4858   -5.8677   -7.6899 C.ar     1 ZINC000000968276   -0.0500
16     C16    -0.2095   -5.2492   -8.7126 C.ar     1 ZINC000000968276   -0.1100
17     C17    -0.0127   -5.7010  -10.1367 C.3      1 ZINC000000968276   -0.0400
18     C18    -1.0191   -6.8057  -10.4649 C.3      1 ZINC000000968276   -0.0900
19     H19    -2.0356   -6.4749  -10.2519 H        1 ZINC000000968276    0.1100
20     S20    -0.6292   -8.3294   -9.5398 S.3      1 ZINC000000968276   -0.4000
21     C21    -0.3532   -9.3011  -10.9966 C.2      1 ZINC000000968276    0.5800
22     O22    -0.0425  -10.4761  -11.0271 O.2      1 ZINC000000968276   -0.5100
23     N23    -0.5478   -8.5103  -12.0541 N.pl3    1 ZINC000000968276   -0.7200
24     C24    -0.8883   -7.2367  -11.9094 C.2      1 ZINC000000968276    0.5200
25     O25    -1.0733   -6.4902  -12.8466 O.2      1 ZINC000000968276   -0.5400
26     C26    -1.0853   -4.2171   -8.4307 C.ar     1 ZINC000000968276   -0.0800
27     C27    -1.2710   -3.8042   -7.1255 C.ar     1 ZINC000000968276   -0.1500
28     O28     0.0304   -2.7149   -2.4111 O.3      1 ZINC000000968276   -0.2900
29     C29     0.0345   -2.0904    1.1868 C.ar     1 ZINC000000968276   -0.0800
30     C30     0.0518   -2.8519    2.4871 C.3      1 ZINC000000968276   -0.1100
31     C31     0.0230   -0.7051    1.1989 C.ar     1 ZINC000000968276    0.0700
32     O32     0.0215   -0.0341    2.3816 O.3      1 ZINC000000968276   -0.4900
33     H33     1.0042    1.8801    0.0026 H        1 ZINC000000968276    0.0700
34     H34    -0.5455    1.8639   -0.8728 H        1 ZINC000000968276    0.0700
35     H35    -0.5286    1.8543    0.9071 H        1 ZINC000000968276    0.0700
36     H36     1.0157    0.2707   -2.8127 H        1 ZINC000000968276    0.0700
37     H37    -0.5181   -0.5154   -3.2573 H        1 ZINC000000968276    0.0700
38     H38    -0.5332    1.0196   -2.3563 H        1 ZINC000000968276    0.0700
39     H39     0.7452   -4.6286    0.7772 H        1 ZINC000000968276    0.0800
40     H40    -0.9521   -4.6522    0.2443 H        1 ZINC000000968276    0.0800
41     H41     1.5476   -4.6353   -1.4987 H        1 ZINC000000968276    0.0800
42     H42     0.2896   -5.8949   -1.4043 H        1 ZINC000000968276    0.0900
43     H43    -2.0524   -3.8217   -1.1813 H        1 ZINC000000968276    0.0700
44     H44    -2.3897   -3.7366   -2.9270 H        1 ZINC000000968276    0.0800
45     H45    -2.0818   -5.3110   -2.1558 H        1 ZINC000000968276    0.0700
46     H46     1.0712   -4.5703   -4.0090 H        1 ZINC000000968276    0.0700
47     H47    -0.2471   -5.7507   -3.8166 H        1 ZINC000000968276    0.0800
48     H48     0.8513   -5.9381   -5.5853 H        1 ZINC000000968276    0.1200
49     H49     1.1691   -6.6739   -7.9126 H        1 ZINC000000968276    0.1300
50     H50    -0.1664   -4.8577  -10.8100 H        1 ZINC000000968276    0.0900
51     H51     1.0003   -6.0841  -10.2597 H        1 ZINC000000968276    0.0800
52     H52    -1.6274   -3.7357   -9.2312 H        1 ZINC000000968276    0.1300
53     H53    -1.9552   -2.9980   -6.9059 H        1 ZINC000000968276    0.1300
54     H54     1.0835   -3.0228    2.7944 H        1 ZINC000000968276    0.0700
55     H55    -0.4646   -2.2740    3.2535 H        1 ZINC000000968276    0.0700
56     H56    -0.4510   -3.8098    2.3539 H        1 ZINC000000968276    0.0700
57     H57     0.9044    0.1674    2.7206 H        1 ZINC000000968276    0.3800
@<TRIPOS>BOND
1     1     2     1
2     1     33    1
3     1     34    1
4     1     35    1
5     2     31    ar
6     2     3     ar
7     3     4     1
8     3     5     ar
9     4     36    1
10    4     37    1
11    4     38    1
12    5     28    1
13    5     6     ar
14    6     7     1
15    6     29    ar
16    7     8     1
17    7     39    1
18    7     40    1
19    8     9     1
20    8     41    1
21    8     42    1
22    9     10    1
23    9     11    1
24    9     28    1
25    10    43    1
26    10    44    1
27    10    45    1
28    11    12    1
29    11    46    1
30    11    47    1
31    12    13    1
32    13    27    ar
33    13    14    ar
34    14    15    ar
35    14    48    1
36    15    16    ar
37    15    49    1
38    16    17    1
39    16    26    ar
40    17    18    1
41    17    50    1
42    17    51    1
43    18    19    1
44    18    24    1
45    18    20    1
46    20    21    1
47    21    22    2
48    21    23    1
49    23    24    1
50    24    25    2
51    26    27    ar
52    26    52    1
53    27    53    1
54    29    30    1
55    29    31    ar
56    30    54    1
57    30    55    1
58    30    56    1
59    31    32    1
60    32    57    1
@<TRIPOS>SUBSTRUCTURE
1   ZINC000000968276 1     RESIDUE    1   A     ZIN   1


@<TRIPOS>MOLECULE
C1=CSC(=C1)C2=NC3=C(C(=C2)C(F)(F)F)C(=C(S3)C(=O)NC4=CC=C(C=C4)F)N
40    43    1     0     0
SMALL
USER_CHARGES
@<TRIPOS>ATOM
1      N1     -0.0165    1.3836    0.0137 N.pl3    1 ZINC000008589864   -0.8200
2      C2      0.0022   -0.0044   -0.0031 C.2      1 ZINC000008589864    0.3200
3      C3     -1.1269   -0.7580   -0.0033 C.2      1 ZINC000008589864   -0.3800
4      C4     -2.4413   -0.2322    0.0142 C.2      1 ZINC000008589864    0.6100
5      O5     -2.6149    0.9733    0.0307 O.2      1 ZINC000008589864   -0.5300
6      N6     -3.5005   -1.0656    0.0125 N.am     1 ZINC000008589864   -0.6700
7      C7     -4.7965   -0.5503    0.1274 C.ar     1 ZINC000008589864    0.1400
8      C8     -5.7655   -1.2554    0.8292 C.ar     1 ZINC000008589864   -0.1100
9      C9     -7.0438   -0.7447    0.9418 C.ar     1 ZINC000008589864   -0.1300
10     C10    -7.3597    0.4692    0.3552 C.ar     1 ZINC000008589864    0.0800
11     F11    -8.6107    0.9669    0.4665 F        1 ZINC000008589864   -0.1400
12     C12    -6.3950    1.1739   -0.3451 C.ar     1 ZINC000008589864   -0.1300
13     C13    -5.1139    0.6697   -0.4553 C.ar     1 ZINC000008589864   -0.0900
14     S14    -0.7425   -2.4674   -0.0279 S.3      1 ZINC000008589864    0.2100
15     C15     0.9895   -2.1568   -0.0383 C.ar     1 ZINC000008589864    0.1100
16     N16     2.0115   -3.0151   -0.0575 N.ar     1 ZINC000008589864   -0.4300
17     C17     3.2702   -2.6056   -0.0627 C.ar     1 ZINC000008589864    0.2700
18     C18     4.3596   -3.5997   -0.0847 C.2      1 ZINC000008589864   -0.1900
19     C19     4.1924   -4.9393   -0.1060 C.2      1 ZINC000008589864   -0.0600
20     C20     5.3629   -5.6654   -0.1244 C.2      1 ZINC000008589864   -0.1400
21     C21     6.4835   -4.9349   -0.1183 C.2      1 ZINC000008589864   -0.1900
22     S22     6.0778   -3.2239   -0.0948 S.3      1 ZINC000008589864    0.1500
23     C23     3.5804   -1.2394   -0.0482 C.ar     1 ZINC000008589864   -0.1200
24     C24     2.5724   -0.3233   -0.0284 C.ar     1 ZINC000008589864   -0.0700
25     C25     2.8802    1.1518   -0.0129 C.3      1 ZINC000008589864    0.5000
26     F26     4.2665    1.3391   -0.0223 F        1 ZINC000008589864   -0.1600
27     F27     2.3201    1.7569   -1.1431 F        1 ZINC000008589864   -0.1600
28     F28     2.3395    1.7289    1.1412 F        1 ZINC000008589864   -0.1600
29     C29     1.2308   -0.7774   -0.0284 C.ar     1 ZINC000008589864   -0.1400
30     H30     0.8169    1.8799    0.0087 H        1 ZINC000008589864    0.3900
31     H31    -0.8629    1.8572    0.0263 H        1 ZINC000008589864    0.4300
32     H32    -3.3645   -2.0226   -0.0684 H        1 ZINC000008589864    0.4100
33     H33    -5.5197   -2.2025    1.2863 H        1 ZINC000008589864    0.1400
34     H34    -7.7976   -1.2927    1.4875 H        1 ZINC000008589864    0.1400
35     H35    -6.6435    2.1203   -0.8021 H        1 ZINC000008589864    0.1400
36     H36    -4.3618    1.2198   -1.0012 H        1 ZINC000008589864    0.1500
37     H37     3.2179   -5.4049   -0.1081 H        1 ZINC000008589864    0.1500
38     H38     5.3750   -6.7452   -0.1420 H        1 ZINC000008589864    0.1500
39     H39     7.4864   -5.3355   -0.1299 H        1 ZINC000008589864    0.1700
40     H40     4.6106   -0.9151   -0.0522 H        1 ZINC000008589864    0.1600
@<TRIPOS>BOND
1     1     2     1
2     1     30    1
3     1     31    1
4     2     29    1
5     2     3     2
6     3     4     1
7     3     14    1
8     4     5     2
9     4     6     am
10    6     7     1
11    6     32    1
12    7     13    ar
13    7     8     ar
14    8     9     ar
15    8     33    1
16    9     10    ar
17    9     34    1
18    10    11    1
19    10    12    ar
20    12    13    ar
21    12    35    1
22    13    36    1
23    14    15    1
24    15    29    ar
25    15    16    ar
26    16    17    ar
27    17    18    1
28    17    23    ar
29    18    22    1
30    18    19    2
31    19    20    1
32    19    37    1
33    20    21    2
34    20    38    1
35    21    22    1
36    21    39    1
37    23    24    ar
38    23    40    1
39    24    25    1
40    24    29    ar
41    25    26    1
42    25    27    1
43    25    28    1
@<TRIPOS>SUBSTRUCTURE
1   ZINC000008589864 1     RESIDUE    1   A     ZIN   1


@<TRIPOS>MOLECULE
C=CCC1=CC(=C(C=C1)O)C2=CC(=C(C=C2)O)CC=C
38    39    1     0     0
SMALL
USER_CHARGES
@<TRIPOS>ATOM
1      C1     -0.0157    1.3058    0.0092 C.2      1 ZINC000000001536   -0.1900
2      C2      0.0021   -0.0041    0.0020 C.2      1 ZINC000000001536   -0.1500
3      C3      1.3172   -0.7397   -0.0145 C.3      1 ZINC000000001536   -0.0600
4      C4      1.3689   -1.7024    1.1438 C.ar     1 ZINC000000001536   -0.0800
5      C5      1.8734   -1.2872    2.3631 C.ar     1 ZINC000000001536   -0.1000
6      C6      1.9245   -2.1629    3.4316 C.ar     1 ZINC000000001536   -0.1400
7      C7      1.4695   -3.4631    3.2855 C.ar     1 ZINC000000001536    0.1100
8      O8      1.5187   -4.3245    4.3350 O.3      1 ZINC000000001536   -0.4900
9      C9      0.9589   -3.8858    2.0542 C.ar     1 ZINC000000001536   -0.0700
10     C10     0.4689   -5.2759    1.8885 C.ar     1 ZINC000000001536   -0.0600
11     C11    -0.7837   -5.5123    1.3250 C.ar     1 ZINC000000001536   -0.0900
12     C12    -1.2363   -6.8062    1.1718 C.ar     1 ZINC000000001536   -0.1500
13     C13    -0.4459   -7.8722    1.5786 C.ar     1 ZINC000000001536    0.1100
14     O14    -0.8946   -9.1458    1.4263 O.3      1 ZINC000000001536   -0.4900
15     C15     0.8024   -7.6400    2.1403 C.ar     1 ZINC000000001536   -0.1100
16     C16     1.6576   -8.8002    2.5801 C.3      1 ZINC000000001536   -0.0500
17     C17     1.1853   -9.2911    3.9244 C.2      1 ZINC000000001536   -0.1500
18     C18     0.8606  -10.5501    4.0849 C.2      1 ZINC000000001536   -0.1800
19     C19     1.2629   -6.3489    2.2908 C.ar     1 ZINC000000001536   -0.0700
20     C20     0.9072   -2.9939    0.9859 C.ar     1 ZINC000000001536   -0.0900
21     H21     0.9122    1.8585    0.0033 H        1 ZINC000000001536    0.1000
22     H22    -0.9582    1.8330    0.0166 H        1 ZINC000000001536    0.1000
23     H23    -0.9258   -0.5567    0.0079 H        1 ZINC000000001536    0.1100
24     H24     1.4134   -1.2911   -0.9498 H        1 ZINC000000001536    0.0800
25     H25     2.1349   -0.0241    0.0711 H        1 ZINC000000001536    0.0800
26     H26     2.2294   -0.2744    2.4807 H        1 ZINC000000001536    0.1300
27     H27     2.3198   -1.8331    4.3810 H        1 ZINC000000001536    0.1300
28     H28     0.7243   -4.3187    4.8862 H        1 ZINC000000001536    0.3900
29     H29    -1.3994   -4.6832    1.0090 H        1 ZINC000000001536    0.1300
30     H30    -2.2069   -6.9900    0.7352 H        1 ZINC000000001536    0.1300
31     H31    -0.6568   -9.5481    0.5797 H        1 ZINC000000001536    0.3900
32     H32     1.5790   -9.6065    1.8508 H        1 ZINC000000001536    0.0800
33     H33     2.6962   -8.4782    2.6552 H        1 ZINC000000001536    0.0800
34     H34     1.1147   -8.6050    4.7555 H        1 ZINC000000001536    0.1100
35     H35     0.9313  -11.2361    3.2538 H        1 ZINC000000001536    0.1000
36     H36     0.5222  -10.9019    5.0483 H        1 ZINC000000001536    0.1000
37     H37     2.2341   -6.1689    2.7274 H        1 ZINC000000001536    0.1300
38     H38     0.5139   -3.3146    0.0325 H        1 ZINC000000001536    0.1300
@<TRIPOS>BOND
1     1     2     2
2     1     21    1
3     1     22    1
4     2     3     1
5     2     23    1
6     3     4     1
7     3     24    1
8     3     25    1
9     4     20    ar
10    4     5     ar
11    5     6     ar
12    5     26    1
13    6     7     ar
14    6     27    1
15    7     8     1
16    7     9     ar
17    8     28    1
18    9     10    1
19    9     20    ar
20    10    19    ar
21    10    11    ar
22    11    12    ar
23    11    29    1
24    12    13    ar
25    12    30    1
26    13    14    1
27    13    15    ar
28    14    31    1
29    15    16    1
30    15    19    ar
31    16    17    1
32    16    32    1
33    16    33    1
34    17    18    2
35    17    34    1
36    18    35    1
37    18    36    1
38    19    37    1
39    20    38    1
@<TRIPOS>SUBSTRUCTURE
1   ZINC000000001536 1     RESIDUE    1   A     ZIN   1


@<TRIPOS>MOLECULE
CC1=NC2=C(C(=N1)NC3=NNC4=C3CN(C4(C)C)C(=O)NC(CN(C)C)C5=CC=CC=C5)SC=C2
66    70    1     0     0
SMALL
USER_CHARGES
@<TRIPOS>ATOM
1      C1     -0.8466    1.0806    0.4206 C.3      1 ZINC000043203531   -0.0800
2      C2     -1.2918   -0.3497    0.2554 C.ar     1 ZINC000043203531    0.3700
3      N3     -1.0675   -0.9551   -0.8970 N.ar     1 ZINC000043203531   -0.5200
4      C4     -1.4425   -2.2146   -1.0871 C.ar     1 ZINC000043203531    0.4800
5      N5     -1.2046   -2.8457   -2.2979 N.pl3    1 ZINC000043203531   -0.6100
6      C6     -0.5636   -2.1547   -3.3337 C.2      1 ZINC000043203531    0.3500
7      N7     -0.1357   -0.9157   -3.2842 N.2      1 ZINC000043203531   -0.2300
8      N8      0.4441   -0.6044   -4.5200 N.pl3    1 ZINC000043203531   -0.4400
9      C9      0.3508   -1.6957   -5.3131 C.2      1 ZINC000043203531    0.0900
10     C10    -0.2604   -2.6698   -4.6073 C.2      1 ZINC000043203531   -0.3000
11     C11    -0.3815   -3.9056   -5.4627 C.3      1 ZINC000043203531    0.1800
12     N12     0.2155   -3.5991   -6.7676 N.am     1 ZINC000043203531   -0.6100
13     C13     0.3149   -4.4280   -7.8257 C.2      1 ZINC000043203531    0.7300
14     O14     0.8365   -4.0416   -8.8538 O.2      1 ZINC000043203531   -0.5700
15     N15    -0.1640   -5.6852   -7.7442 N.am     1 ZINC000043203531   -0.7500
16     C16    -0.1662   -6.5465   -8.9292 C.3      1 ZINC000043203531    0.1800
17     H17     0.4804   -6.1149   -9.6933 H        1 ZINC000043203531    0.1300
18     C18    -1.5916   -6.6619   -9.4732 C.3      1 ZINC000043203531   -0.0200
19     N19    -2.0764   -5.3310   -9.8626 N.4      1 ZINC000043203531   -0.3900
20     H20    -1.9759   -4.6957   -9.0851 H        1 ZINC000043203531    0.4200
21     C21    -1.2914   -4.8381  -11.0023 C.3      1 ZINC000043203531   -0.0600
22     C22    -3.4923   -5.4179  -10.2442 C.3      1 ZINC000043203531   -0.0500
23     C23     0.3415   -7.9154   -8.5562 C.ar     1 ZINC000043203531   -0.1200
24     C24    -0.0380   -8.4905   -7.3578 C.ar     1 ZINC000043203531   -0.1100
25     C25     0.4278   -9.7462   -7.0156 C.ar     1 ZINC000043203531   -0.1100
26     C26     1.2726  -10.4271   -7.8720 C.ar     1 ZINC000043203531   -0.1000
27     C27     1.6514   -9.8525   -9.0708 C.ar     1 ZINC000043203531   -0.1100
28     C28     1.1823   -8.5985   -9.4150 C.ar     1 ZINC000043203531   -0.1000
29     C29     0.6856   -2.2111   -6.6900 C.3      1 ZINC000043203531    0.2600
30     C30    -0.0265   -1.3617   -7.7447 C.3      1 ZINC000043203531   -0.1600
31     C31     2.1982   -2.1615   -6.9147 C.3      1 ZINC000043203531   -0.1600
32     C32    -2.0840   -2.8964   -0.0403 C.ar     1 ZINC000043203531   -0.3100
33     S33    -2.7108   -4.5341    0.0758 S.3      1 ZINC000043203531    0.1200
34     C34    -3.2436   -4.2617    1.7264 C.2      1 ZINC000043203531   -0.1400
35     C35    -2.9541   -3.0301    2.1156 C.2      1 ZINC000043203531   -0.1200
36     C36    -2.3054   -2.2261    1.1652 C.ar     1 ZINC000043203531    0.2000
37     N37    -1.8811   -0.9452    1.2616 N.ar     1 ZINC000043203531   -0.5200
38     H38     0.1737    1.1016    0.8035 H        1 ZINC000043203531    0.0900
39     H39    -0.8831    1.5862   -0.5443 H        1 ZINC000043203531    0.0900
40     H40    -1.5084    1.5884    1.1222 H        1 ZINC000043203531    0.0900
41     H41    -1.4820   -3.7660   -2.4279 H        1 ZINC000043203531    0.4300
42     H42     0.8427    0.2454   -4.7646 H        1 ZINC000043203531    0.4500
43     H43     0.1536   -4.7326   -4.9960 H        1 ZINC000043203531    0.0800
44     H44    -1.4322   -4.1669   -5.5887 H        1 ZINC000043203531    0.0800
45     H45    -0.5072   -6.0197   -6.9008 H        1 ZINC000043203531    0.4100
46     H46    -1.5965   -7.3192  -10.3427 H        1 ZINC000043203531    0.1500
47     H47    -2.2424   -7.0744   -8.7022 H        1 ZINC000043203531    0.1400
48     H48    -1.4457   -5.4928  -11.8600 H        1 ZINC000043203531    0.1200
49     H49    -1.6122   -3.8273  -11.2544 H        1 ZINC000043203531    0.1200
50     H50    -0.2340   -4.8284  -10.7381 H        1 ZINC000043203531    0.1400
51     H51    -4.0747   -5.7837   -9.3985 H        1 ZINC000043203531    0.1200
52     H52    -3.8520   -4.4304  -10.5331 H        1 ZINC000043203531    0.1200
53     H53    -3.6007   -6.1042  -11.0840 H        1 ZINC000043203531    0.1300
54     H54    -0.6980   -7.9585   -6.6887 H        1 ZINC000043203531    0.1200
55     H55     0.1318  -10.1952   -6.0790 H        1 ZINC000043203531    0.1300
56     H56     1.6371  -11.4079   -7.6044 H        1 ZINC000043203531    0.1300
57     H57     2.3118  -10.3843   -9.7398 H        1 ZINC000043203531    0.1300
58     H58     1.4782   -8.1495  -10.3516 H        1 ZINC000043203531    0.1300
59     H59    -1.1016   -1.3881   -7.5672 H        1 ZINC000043203531    0.0600
60     H60     0.3270   -0.3326   -7.6817 H        1 ZINC000043203531    0.0800
61     H61     0.1879   -1.7594   -8.7367 H        1 ZINC000043203531    0.0800
62     H62     2.4327   -2.5664   -7.8992 H        1 ZINC000043203531    0.0900
63     H63     2.5406   -1.1284   -6.8558 H        1 ZINC000043203531    0.0700
64     H64     2.6988   -2.7545   -6.1493 H        1 ZINC000043203531    0.0600
65     H65    -3.7403   -4.9984    2.3404 H        1 ZINC000043203531    0.1800
66     H66    -3.2015   -2.6666    3.1020 H        1 ZINC000043203531    0.1600
@<TRIPOS>BOND
1     1     2     1
2     1     38    1
3     1     39    1
4     1     40    1
5     2     37    ar
6     2     3     ar
7     3     4     ar
8     4     5     1
9     4     32    ar
10    5     6     1
11    5     41    1
12    6     10    1
13    6     7     2
14    7     8     1
15    8     9     1
16    8     42    1
17    9     29    1
18    9     10    2
19    10    11    1
20    11    12    1
21    11    43    1
22    11    44    1
23    12    13    am
24    12    29    1
25    13    14    2
26    13    15    am
27    15    16    1
28    15    45    1
29    16    17    1
30    16    18    1
31    16    23    1
32    18    19    1
33    18    46    1
34    18    47    1
35    19    20    1
36    19    21    1
37    19    22    1
38    21    48    1
39    21    49    1
40    21    50    1
41    22    51    1
42    22    52    1
43    22    53    1
44    23    28    ar
45    23    24    ar
46    24    25    ar
47    24    54    1
48    25    26    ar
49    25    55    1
50    26    27    ar
51    26    56    1
52    27    28    ar
53    27    57    1
54    28    58    1
55    29    30    1
56    29    31    1
57    30    59    1
58    30    60    1
59    30    61    1
60    31    62    1
61    31    63    1
62    31    64    1
63    32    36    ar
64    32    33    1
65    33    34    1
66    34    35    2
67    34    65    1
68    35    36    1
69    35    66    1
70    36    37    ar
@<TRIPOS>SUBSTRUCTURE
1   ZINC000043203531 1     RESIDUE    1   A     ZIN   1


@<TRIPOS>MOLECULE
O=S(C1=CC=CC=C1)(C2=C([N+]([O-])=O)C=C(F)C=C2)=O
27    28    1     0     0
SMALL
USER_CHARGES
@<TRIPOS>ATOM
1      O1     -1.1483    0.5721   -1.0044 O.2      1 ZINC000001638577   -0.1100
2      N2     -0.8842    1.4270   -0.1781 N.pl3    1 ZINC000001638577    0.0100
3      O3      0.2140    1.4466    0.3483 O.2      1 ZINC000001638577   -0.1300
4      C4     -1.8956    2.4458    0.1820 C.ar     1 ZINC000001638577    0.0800
5      C5     -3.2249    2.0875    0.3003 C.ar     1 ZINC000001638577   -0.1100
6      C6     -4.1711    3.0409    0.6372 C.ar     1 ZINC000001638577    0.1700
7      F7     -5.4709    2.6917    0.7536 F        1 ZINC000001638577   -0.1100
8      C8     -3.7838    4.3520    0.8551 C.ar     1 ZINC000001638577   -0.1300
9      C9     -2.4536    4.7081    0.7362 C.ar     1 ZINC000001638577    0.0200
10     C10    -1.5093    3.7544    0.4054 C.ar     1 ZINC000001638577   -0.6400
11     S11     0.1862    4.2097    0.2546 S.o2     1 ZINC000001638577    2.5800
12     O12     0.7113    3.4494   -0.8250 O.2      1 ZINC000001638577   -0.9200
13     O13     0.2258    5.6295    0.2971 O.2      1 ZINC000001638577   -0.9200
14     C14     1.0089    3.6454    1.7070 C.ar     1 ZINC000001638577   -0.6500
15     C15     0.6978    4.1967    2.9359 C.ar     1 ZINC000001638577   -0.0300
16     C16     1.3432    3.7540    4.0754 C.ar     1 ZINC000001638577   -0.1400
17     C17     2.2994    2.7597    3.9860 C.ar     1 ZINC000001638577   -0.0600
18     C18     2.6098    2.2078    2.7572 C.ar     1 ZINC000001638577   -0.1400
19     C19     1.9613    2.6475    1.6183 C.ar     1 ZINC000001638577    0.0200
20     H20    -3.5259    1.0644    0.1298 H        1 ZINC000001638577    0.1700
21     H21    -4.5209    5.0965    1.1176 H        1 ZINC000001638577    0.1700
22     H22    -2.1513    5.7309    0.9061 H        1 ZINC000001638577    0.1800
23     H23    -0.0493    4.9735    3.0058 H        1 ZINC000001638577    0.1300
24     H24     1.1006    4.1852    5.0354 H        1 ZINC000001638577    0.1300
25     H25     2.8041    2.4143    4.8762 H        1 ZINC000001638577    0.1300
26     H26     3.3571    1.4312    2.6874 H        1 ZINC000001638577    0.1400
27     H27     2.2039    2.2163    0.6583 H        1 ZINC000001638577    0.1500
@<TRIPOS>BOND
1     1     2     2
2     2     3     2
3     2     4     1
4     4     10    ar
5     4     5     ar
6     5     6     ar
7     5     20    1
8     6     7     1
9     6     8     ar
10    8     9     ar
11    8     21    1
12    9     10    ar
13    9     22    1
14    10    11    1
15    11    12    2
16    11    13    2
17    11    14    1
18    14    19    ar
19    14    15    ar
20    15    16    ar
21    15    23    1
22    16    17    ar
23    16    24    1
24    17    18    ar
25    17    25    1
26    18    19    ar
27    18    26    1
28    19    27    1
@<TRIPOS>SUBSTRUCTURE
1   ZINC000001638577 1     RESIDUE    1   A     ZIN   1


@<TRIPOS>MOLECULE
O=S(C1=CC=CC=C1)(C2=C([N+]([O-])=O)C=C(Cl)C=C2)=O
27    28    1     0     0
SMALL
USER_CHARGES
@<TRIPOS>ATOM
1      O1     -1.1460    0.5720   -1.0081 O.2      1 ZINC000000150557   -0.1100
2      N2     -0.8823    1.4266   -0.1813 N.pl3    1 ZINC000000150557    0.0100
3      O3      0.2161    1.4469    0.3446 O.2      1 ZINC000000150557   -0.1300
4      C4     -1.8946    2.4443    0.1798 C.ar     1 ZINC000000150557    0.0700
5      C5     -3.2238    2.0851    0.2977 C.ar     1 ZINC000000150557   -0.0700
6      C6     -4.1701    3.0366    0.6353 C.ar     1 ZINC000000150557    0.0100
7      Cl7    -5.8400    2.5859    0.7841 Cl       1 ZINC000000150557   -0.0200
8      C8     -3.7849    4.3469    0.8546 C.ar     1 ZINC000000150557   -0.0900
9      C9     -2.4549    4.7051    0.7364 C.ar     1 ZINC000000150557    0.0000
10     C10    -1.5094    3.7530    0.4047 C.ar     1 ZINC000000150557   -0.6200
11     S11     0.1856    4.2102    0.2547 S.o2     1 ZINC000000150557    2.5800
12     O12     0.7120    3.4510   -0.8251 O.2      1 ZINC000000150557   -0.9200
13     O13     0.2236    5.6300    0.2977 O.2      1 ZINC000000150557   -0.9200
14     C14     1.0084    3.6462    1.7071 C.ar     1 ZINC000000150557   -0.6500
15     C15     0.6971    4.1974    2.9360 C.ar     1 ZINC000000150557   -0.0300
16     C16     1.3426    3.7549    4.0755 C.ar     1 ZINC000000150557   -0.1400
17     C17     2.2992    2.7609    3.9861 C.ar     1 ZINC000000150557   -0.0600
18     C18     2.6098    2.2091    2.7573 C.ar     1 ZINC000000150557   -0.1400
19     C19     1.9612    2.6486    1.6184 C.ar     1 ZINC000000150557    0.0200
20     H20    -3.5241    1.0619    0.1260 H        1 ZINC000000150557    0.1700
21     H21    -4.5230    5.0901    1.1178 H        1 ZINC000000150557    0.1700
22     H22    -2.1541    5.7281    0.9076 H        1 ZINC000000150557    0.1800
23     H23    -0.0502    4.9740    3.0058 H        1 ZINC000000150557    0.1300
24     H24     1.0999    4.1861    5.0355 H        1 ZINC000000150557    0.1300
25     H25     2.8040    2.4158    4.8763 H        1 ZINC000000150557    0.1300
26     H26     3.3574    1.4328    2.6875 H        1 ZINC000000150557    0.1400
27     H27     2.2039    2.2175    0.6584 H        1 ZINC000000150557    0.1500
@<TRIPOS>BOND
1     1     2     2
2     2     3     2
3     2     4     1
4     4     10    ar
5     4     5     ar
6     5     6     ar
7     5     20    1
8     6     7     1
9     6     8     ar
10    8     9     ar
11    8     21    1
12    9     10    ar
13    9     22    1
14    10    11    1
15    11    12    2
16    11    13    2
17    11    14    1
18    14    19    ar
19    14    15    ar
20    15    16    ar
21    15    23    1
22    16    17    ar
23    16    24    1
24    17    18    ar
25    17    25    1
26    18    19    ar
27    18    26    1
28    19    27    1
@<TRIPOS>SUBSTRUCTURE
1   ZINC000000150557 1     RESIDUE    1   A     ZIN   1


@<TRIPOS>MOLECULE
O=S(C1=CC=CC=C1)(C2=C([N+]([O-])=O)C=CC=C2)=O
27    28    1     0     0
SMALL
USER_CHARGES
@<TRIPOS>ATOM
1      O1     -1.1403    0.5736   -1.0213 O.2      1 ZINC000000247943   -0.1200
2      N2     -0.8774    1.4263   -0.1923 N.pl3    1 ZINC000000247943    0.0100
3      O3      0.2218    1.4475    0.3320 O.2      1 ZINC000000247943   -0.1400
4      C4     -1.8915    2.4406    0.1735 C.ar     1 ZINC000000247943    0.0500
5      C5     -3.2202    2.0783    0.2906 C.ar     1 ZINC000000247943   -0.0700
6      C6     -4.1674    3.0257    0.6323 C.ar     1 ZINC000000247943   -0.0600
7      C7     -3.7857    4.3349    0.8571 C.ar     1 ZINC000000247943   -0.0900
8      C8     -2.4564    4.6970    0.7409 C.ar     1 ZINC000000247943   -0.0200
9      C9     -1.5089    3.7491    0.4035 C.ar     1 ZINC000000247943   -0.6200
10     S10     0.1851    4.2106    0.2553 S.o2     1 ZINC000000247943    2.5800
11     O11     0.7137    3.4553   -0.8261 O.2      1 ZINC000000247943   -0.9200
12     O12     0.2197    5.6304    0.3018 O.2      1 ZINC000000247943   -0.9200
13     C13     1.0087    3.6450    1.7067 C.ar     1 ZINC000000247943   -0.6500
14     C14     0.6976    4.1944    2.9364 C.ar     1 ZINC000000247943   -0.0300
15     C15     1.3437    3.7507    4.0751 C.ar     1 ZINC000000247943   -0.1400
16     C16     2.3006    2.7573    3.9841 C.ar     1 ZINC000000247943   -0.0600
17     C17     2.6111    2.2072    2.7545 C.ar     1 ZINC000000247943   -0.1400
18     C18     1.9619    2.6480    1.6164 C.ar     1 ZINC000000247943    0.0200
19     H19    -3.5185    1.0553    0.1149 H        1 ZINC000000247943    0.1600
20     H20    -5.2058    2.7428    0.7231 H        1 ZINC000000247943    0.1600
21     H21    -4.5257    5.0750    1.1233 H        1 ZINC000000247943    0.1600
22     H22    -2.1582    5.7201    0.9162 H        1 ZINC000000247943    0.1700
23     H23    -0.0500    4.9706    3.0075 H        1 ZINC000000247943    0.1300
24     H24     1.1011    4.1805    5.0357 H        1 ZINC000000247943    0.1300
25     H25     2.8059    2.4111    4.8736 H        1 ZINC000000247943    0.1300
26     H26     3.3589    1.4313    2.6833 H        1 ZINC000000247943    0.1400
27     H27     2.2044    2.2182    0.6557 H        1 ZINC000000247943    0.1500
@<TRIPOS>BOND
1     1     2     2
2     2     3     2
3     2     4     1
4     4     9     ar
5     4     5     ar
6     5     6     ar
7     5     19    1
8     6     7     ar
9     6     20    1
10    7     8     ar
11    7     21    1
12    8     9     ar
13    8     22    1
14    9     10    1
15    10    11    2
16    10    12    2
17    10    13    1
18    13    18    ar
19    13    14    ar
20    14    15    ar
21    14    23    1
22    15    16    ar
23    15    24    1
24    16    17    ar
25    16    25    1
26    17    18    ar
27    17    26    1
28    18    27    1
@<TRIPOS>SUBSTRUCTURE
1   ZINC000000247943 1     RESIDUE    1   A     ZIN   1


@<TRIPOS>MOLECULE
C1CC(=CC2=CC=CS2)C(=O)C1=CC3=CC=CS3
30    32    1     0     0
SMALL
USER_CHARGES
@<TRIPOS>ATOM
1      O1      0.1764   -0.0191   -0.8921 O.2      1 ZINC000000144206   -0.4500
2      C2      0.1046    1.1922   -0.7574 C.2      1 ZINC000000144206    0.4100
3      C3     -1.0609    1.9497   -1.0033 C.2      1 ZINC000000144206   -0.2200
4      C4     -2.2528    1.4518   -1.4185 C.2      1 ZINC000000144206    0.0300
5      C5     -3.3490    2.3226   -1.6288 C.2      1 ZINC000000144206   -0.2100
6      C6     -4.5999    1.9418   -2.0406 C.2      1 ZINC000000144206   -0.1000
7      C7     -5.4738    2.9954   -2.1633 C.2      1 ZINC000000144206   -0.1400
8      C8     -4.9625    4.1959   -1.8645 C.2      1 ZINC000000144206   -0.2600
9      S9     -3.3270    4.0653   -1.3967 S.3      1 ZINC000000144206    0.2200
10     C10    -0.7646    3.4047   -0.7281 C.3      1 ZINC000000144206   -0.1000
11     C11     0.7083    3.4432   -0.2889 C.3      1 ZINC000000144206   -0.0700
12     C12     1.1749    2.0076   -0.3307 C.2      1 ZINC000000144206   -0.2200
13     C13     2.4214    1.5734   -0.0169 C.2      1 ZINC000000144206    0.0400
14     C14     2.6832    0.1858    0.0836 C.2      1 ZINC000000144206   -0.2200
15     C15     3.8034   -0.4487   -0.3876 C.2      1 ZINC000000144206   -0.1000
16     C16     3.7972   -1.8031   -0.1542 C.2      1 ZINC000000144206   -0.1500
17     C17     2.7149   -2.2652    0.4838 C.2      1 ZINC000000144206   -0.2600
18     S18     1.6274   -0.9997    0.8396 S.3      1 ZINC000000144206    0.2700
19     H19    -2.3652    0.3912   -1.5885 H        1 ZINC000000144206    0.1500
20     H20    -4.8713    0.9172   -2.2479 H        1 ZINC000000144206    0.1500
21     H21    -6.4985    2.8644   -2.4784 H        1 ZINC000000144206    0.1400
22     H22    -5.5136    5.1237   -1.9090 H        1 ZINC000000144206    0.1600
23     H23    -0.9045    3.9963   -1.6329 H        1 ZINC000000144206    0.0900
24     H24    -1.4067    3.7765    0.0703 H        1 ZINC000000144206    0.0900
25     H25     1.2920    4.0538   -0.9778 H        1 ZINC000000144206    0.0900
26     H26     0.7899    3.8340    0.7253 H        1 ZINC000000144206    0.0900
27     H27     3.2139    2.2864    0.1561 H        1 ZINC000000144206    0.1400
28     H28     4.6092    0.0640   -0.8917 H        1 ZINC000000144206    0.1400
29     H29     4.6066   -2.4479   -0.4634 H        1 ZINC000000144206    0.1400
30     H30     2.5534   -3.3012    0.7428 H        1 ZINC000000144206    0.1600
@<TRIPOS>BOND
1     1     2     2
2     2     12    1
3     2     3     1
4     3     4     2
5     3     10    1
6     4     5     1
7     4     19    1
8     5     9     1
9     5     6     2
10    6     7     1
11    6     20    1
12    7     8     2
13    7     21    1
14    8     9     1
15    8     22    1
16    10    11    1
17    10    23    1
18    10    24    1
19    11    12    1
20    11    25    1
21    11    26    1
22    12    13    2
23    13    14    1
24    13    27    1
25    14    18    1
26    14    15    2
27    15    16    1
28    15    28    1
29    16    17    2
30    16    29    1
31    17    18    1
32    17    30    1
@<TRIPOS>SUBSTRUCTURE
1   ZINC000000144206 1     RESIDUE    1   A     ZIN   1


@<TRIPOS>MOLECULE
CC1=C(C=C(C=N1)Cl)NCC2=CC=C(S2)C(=O)NC(CC3CCCC3)C(=O)NC4CC4
60    63    1     0     0
SMALL
USER_CHARGES
@<TRIPOS>ATOM
1      C1      0.5195    0.4111    0.0926 C.3      1 ZINC000098210305   -0.1000
2      C2      0.9401   -1.0356    0.1279 C.ar     1 ZINC000098210305    0.0700
3      N3      1.1065   -1.6941   -1.0014 N.ar     1 ZINC000098210305   -0.4300
4      C4      1.4736   -2.9606   -1.0201 C.ar     1 ZINC000098210305    0.0600
5      C5      1.6996   -3.6525    0.1565 C.ar     1 ZINC000098210305   -0.0400
6      Cl6     2.1825   -5.3195    0.1163 Cl       1 ZINC000098210305   -0.0500
7      C7      1.5363   -2.9986    1.3682 C.ar     1 ZINC000098210305   -0.1500
8      C8      1.1538   -1.6598    1.3507 C.ar     1 ZINC000098210305    0.1800
9      N9      0.9764   -0.9577    2.5454 N.pl3    1 ZINC000098210305   -0.7300
10     C10     1.1930   -1.6297    3.8291 C.3      1 ZINC000098210305    0.1900
11     C11     0.9377   -0.6594    4.9535 C.2      1 ZINC000098210305   -0.2200
12     C12    -0.2496   -0.4774    5.5432 C.2      1 ZINC000098210305   -0.1200
13     C13    -0.2633    0.4584    6.5502 C.2      1 ZINC000098210305   -0.0500
14     C14     0.9552    1.0380    6.7659 C.2      1 ZINC000098210305   -0.2600
15     C15     1.2422    2.0651    7.7715 C.2      1 ZINC000098210305    0.6000
16     O16     0.3545    2.4687    8.4997 O.2      1 ZINC000098210305   -0.5200
17     N17     2.4892    2.5627    7.8897 N.am     1 ZINC000098210305   -0.7100
18     C18     2.7526    3.6668    8.8158 C.3      1 ZINC000098210305    0.1300
19     H19     1.8791    4.3171    8.8636 H        1 ZINC000098210305    0.1200
20     C20     3.0472    3.1053   10.2083 C.3      1 ZINC000098210305   -0.1200
21     C21     4.2028    2.1064   10.1213 C.3      1 ZINC000098210305   -0.0900
22     C22     5.5402    2.8454    9.8679 C.3      1 ZINC000098210305   -0.1300
23     C23     6.5918    1.8425   10.4041 C.3      1 ZINC000098210305   -0.1200
24     C24     5.9298    1.2344   11.6577 C.3      1 ZINC000098210305   -0.1300
25     C25     4.4109    1.4021   11.4780 C.3      1 ZINC000098210305   -0.1200
26     C26     3.9409    4.4566    8.3309 C.2      1 ZINC000098210305    0.5300
27     O27     4.5116    4.1294    7.3121 O.2      1 ZINC000098210305   -0.5300
28     N28     4.3694    5.5266    9.0295 N.am     1 ZINC000098210305   -0.7000
29     C29     5.5247    6.2943    8.5581 C.3      1 ZINC000098210305    0.0800
30     C30     5.4253    7.8204    8.6046 C.3      1 ZINC000098210305   -0.1900
31     C31     6.3224    7.0815    9.5997 C.3      1 ZINC000098210305   -0.1900
32     S32     2.1255    0.3486    5.6493 S.3      1 ZINC000098210305    0.2300
33     H33     1.4047    1.0461    0.0577 H        1 ZINC000098210305    0.0800
34     H34    -0.0914    0.5903   -0.7922 H        1 ZINC000098210305    0.0800
35     H35    -0.0591    0.6432    0.9867 H        1 ZINC000098210305    0.0700
36     H36     1.5993   -3.4647   -1.9669 H        1 ZINC000098210305    0.1600
37     H37     1.7054   -3.5137    2.3022 H        1 ZINC000098210305    0.1400
38     H38     0.7099   -0.0253    2.5250 H        1 ZINC000098210305    0.4100
39     H39     0.5102   -2.4749    3.9164 H        1 ZINC000098210305    0.0900
40     H40     2.2215   -1.9864    3.8835 H        1 ZINC000098210305    0.0800
41     H41    -1.1327   -1.0254    5.2494 H        1 ZINC000098210305    0.1500
42     H42    -1.1490    0.7107    7.1143 H        1 ZINC000098210305    0.1600
43     H43     3.2123    2.1897    7.3616 H        1 ZINC000098210305    0.4100
44     H44     3.3210    3.9204   10.8782 H        1 ZINC000098210305    0.0800
45     H45     2.1599    2.6019   10.5922 H        1 ZINC000098210305    0.0900
46     H46     4.0146    1.3741    9.3362 H        1 ZINC000098210305    0.0800
47     H47     5.6862    3.0257    8.8029 H        1 ZINC000098210305    0.0800
48     H48     5.5772    3.7800   10.4276 H        1 ZINC000098210305    0.0700
49     H49     6.7917    1.0675    9.6642 H        1 ZINC000098210305    0.0600
50     H50     7.5120    2.3616   10.6723 H        1 ZINC000098210305    0.0600
51     H51     6.1819    0.1769   11.7373 H        1 ZINC000098210305    0.0600
52     H52     6.2612    1.7657   12.5499 H        1 ZINC000098210305    0.0600
53     H53     4.0051    2.0149   12.2829 H        1 ZINC000098210305    0.0700
54     H54     3.9257    0.4261   11.4703 H        1 ZINC000098210305    0.0600
55     H55     3.9130    5.7883    9.8444 H        1 ZINC000098210305    0.4000
56     H56     6.0779    5.8507    7.7303 H        1 ZINC000098210305    0.1400
57     H57     5.9132    8.3811    7.8073 H        1 ZINC000098210305    0.1000
58     H58     4.5004    8.2531    8.9860 H        1 ZINC000098210305    0.1000
59     H59     5.9877    7.0281   10.6356 H        1 ZINC000098210305    0.1000
60     H60     7.4005    7.1560    9.4569 H        1 ZINC000098210305    0.1100
@<TRIPOS>BOND
1     1     2     1
2     1     33    1
3     1     34    1
4     1     35    1
5     2     8     ar
6     2     3     ar
7     3     4     ar
8     4     5     ar
9     4     36    1
10    5     6     1
11    5     7     ar
12    7     8     ar
13    7     37    1
14    8     9     1
15    9     10    1
16    9     38    1
17    10    11    1
18    10    39    1
19    10    40    1
20    11    32    1
21    11    12    2
22    12    13    1
23    12    41    1
24    13    14    2
25    13    42    1
26    14    15    1
27    14    32    1
28    15    16    2
29    15    17    am
30    17    18    1
31    17    43    1
32    18    19    1
33    18    20    1
34    18    26    1
35    20    21    1
36    20    44    1
37    20    45    1
38    21    25    1
39    21    22    1
40    21    46    1
41    22    23    1
42    22    47    1
43    22    48    1
44    23    24    1
45    23    49    1
46    23    50    1
47    24    25    1
48    24    51    1
49    24    52    1
50    25    53    1
51    25    54    1
52    26    27    2
53    26    28    am
54    28    29    1
55    28    55    1
56    29    31    1
57    29    30    1
58    29    56    1
59    30    31    1
60    30    57    1
61    30    58    1
62    31    59    1
63    31    60    1
@<TRIPOS>SUBSTRUCTURE
1   ZINC000098210305 1     RESIDUE    1   A     ZIN   1


@<TRIPOS>MOLECULE
CCCCCCCCCC(CC)C1=CC=C(C=C1)S(=O)(=O)O
  51   51    0    0    0
SMALL
USER_CHARGES
NO_NAME
@<TRIPOS>ATOM
    1 C1       -0.0187     1.5258     0.0104 C.3    1 <0>      -0.1500
    2 C2        0.0021    -0.0041     0.0020 C.3    1 <0>      -0.1300
    3 C3        0.7182    -0.4975    -1.2568 C.3    1 <0>      -0.1200
    4 C4        0.7390    -2.0273    -1.2652 C.3    1 <0>      -0.1200
    5 C5        1.4551    -2.5207    -2.5240 C.3    1 <0>      -0.1200
    6 C6        1.4758    -4.0506    -2.5324 C.3    1 <0>      -0.1200
    7 C7        2.1920    -4.5440    -3.7912 C.3    1 <0>      -0.1200
    8 C8        2.2127    -6.0738    -3.7996 C.3    1 <0>      -0.1200
    9 C9        2.9289    -6.5673    -5.0584 C.3    1 <0>      -0.1100
   10 C10       2.9496    -8.0971    -5.0668 C.3    1 <0>      -0.0500
   11 H11       3.3977    -8.4595    -4.1416 H      1 <0>       0.0800
   12 C12       1.5185    -8.6259    -5.1818 C.3    1 <0>      -0.1200
   13 C13       1.5276   -10.1514    -5.0649 C.3    1 <0>      -0.1500
   14 C14       3.7602    -8.5820    -6.2411 C.ar   1 <0>      -0.0500
   15 C15       3.3855    -8.2414    -7.5274 C.ar   1 <0>      -0.1400
   16 C16       4.1290    -8.6862    -8.6045 C.ar   1 <0>      -0.0300
   17 C17       5.2474    -9.4713    -8.3954 C.ar   1 <0>      -0.6600
   18 S18       6.1947   -10.0388    -9.7684 S.o2   1 <0>       2.7000
   19 O19       6.7776   -11.3130    -9.3778 O.co2  1 <0>      -1.0600
   20 O20       5.2727   -10.1795   -10.8847 O.co2  1 <0>      -1.0600
   21 O21       7.2104    -9.0290   -10.0232 O.co2  1 <0>      -1.0600
   22 C22       5.6228    -9.8108    -7.1090 C.ar   1 <0>      -0.0300
   23 C23       4.8815    -9.3628    -6.0317 C.ar   1 <0>      -0.1500
   24 H24       1.0039     1.9031     0.0027 H      1 <0>       0.0500
   25 H25      -0.5459     1.8868    -0.8726 H      1 <0>       0.0500
   26 H26      -0.5289     1.8773     0.9072 H      1 <0>       0.0500
   27 H27       0.5293    -0.3651     0.8851 H      1 <0>       0.0600
   28 H28      -1.0205    -0.3814     0.0098 H      1 <0>       0.0600
   29 H29       0.1910    -0.1364    -2.1398 H      1 <0>       0.0600
   30 H30       1.7408    -0.1202    -1.2645 H      1 <0>       0.0600
   31 H31       1.2661    -2.3884    -0.3821 H      1 <0>       0.0600
   32 H32      -0.2836    -2.4046    -1.2575 H      1 <0>       0.0600
   33 H33       0.9279    -2.1597    -3.4071 H      1 <0>       0.0600
   34 H34       2.4777    -2.1435    -2.5317 H      1 <0>       0.0600
   35 H35       2.0030    -4.4117    -1.6494 H      1 <0>       0.0600
   36 H36       0.4533    -4.4279    -2.5247 H      1 <0>       0.0600
   37 H37       1.6648    -4.1829    -4.6743 H      1 <0>       0.0600
   38 H38       3.2146    -4.1667    -3.7990 H      1 <0>       0.0600
   39 H39       2.7399    -6.4349    -2.9166 H      1 <0>       0.0600
   40 H40       1.1901    -6.4511    -3.7919 H      1 <0>       0.0600
   41 H41       2.4017    -6.2062    -5.9415 H      1 <0>       0.0600
   42 H42       3.9515    -6.1900    -5.0662 H      1 <0>       0.0600
   43 H43       0.9099    -8.2039    -4.3820 H      1 <0>       0.0600
   44 H44       1.1011    -8.3379    -6.1466 H      1 <0>       0.0600
   45 H45       2.1362   -10.5734    -5.8647 H      1 <0>       0.0600
   46 H46       1.9450   -10.4395    -4.1001 H      1 <0>       0.0500
   47 H47       0.5081   -10.5282    -5.1468 H      1 <0>       0.0500
   48 H48       2.5117    -7.6280    -7.6908 H      1 <0>       0.1200
   49 H49       3.8359    -8.4207    -9.6095 H      1 <0>       0.1300
   50 H50       6.4968   -10.4239    -6.9456 H      1 <0>       0.1300
   51 H51       5.1748    -9.6280    -5.0267 H      1 <0>       0.1200
@<TRIPOS>BOND
   1    1    2 1
   2    1   24 1
   3    1   25 1
   4    1   26 1
   5    2    3 1
   6    2   27 1
   7    2   28 1
   8    3    4 1
   9    3   29 1
  10    3   30 1
  11    4    5 1
  12    4   31 1
  13    4   32 1
  14    5    6 1
  15    5   33 1
  16    5   34 1
  17    6    7 1
  18    6   35 1
  19    6   36 1
  20    7    8 1
  21    7   37 1
  22    7   38 1
  23    8    9 1
  24    8   39 1
  25    8   40 1
  26    9   10 1
  27    9   41 1
  28    9   42 1
  29   10   11 1
  30   10   12 1
  31   10   14 1
  32   12   13 1
  33   12   43 1
  34   12   44 1
  35   13   45 1
  36   13   46 1
  37   13   47 1
  38   14   23 ar
  39   14   15 ar
  40   15   16 ar
  41   15   48 1
  42   16   17 ar
  43   16   49 1
  44   17   18 1
  45   17   22 ar
  46   18   19 ar
  47   18   20 ar
  48   18   21 ar
  49   22   23 ar
  50   22   50 1
  51   23   51 1


@<TRIPOS>MOLECULE
CC(C)(C(=O)O)SC1=CC=C(C=C1)CCN(CCCCC2CCCCC2)C(=O)NC3CCCCC3
80    82    1     0     0
SMALL
USER_CHARGES
@<TRIPOS>ATOM
1      C1      0.5548   -0.9406    1.5059 C.3      1 ZINC000003995991   -0.1400
2      C2      0.0892   -0.3089    0.1925 C.3      1 ZINC000003995991   -0.1200
3      C3      0.9284   -0.8576   -0.9630 C.3      1 ZINC000003995991   -0.1100
4      S4     -1.6580   -0.7099   -0.0854 S.3      1 ZINC000003995991   -0.1200
5      C5     -2.4487   -0.0484    1.3436 C.ar     1 ZINC000003995991   -0.0500
6      C6     -1.7247    0.7203    2.2472 C.ar     1 ZINC000003995991   -0.0900
7      C7     -2.3477    1.2370    3.3659 C.ar     1 ZINC000003995991   -0.1000
8      C8     -3.6903    0.9905    3.5878 C.ar     1 ZINC000003995991   -0.1100
9      C9     -4.3666    1.5562    4.8099 C.3      1 ZINC000003995991   -0.0900
10     C10    -4.9363    2.9383    4.4838 C.3      1 ZINC000003995991    0.1100
11     N11    -5.5936    3.4882    5.6720 N.am     1 ZINC000003995991   -0.6300
12     C12    -4.8288    4.2983    6.6233 C.3      1 ZINC000003995991    0.1300
13     C13    -4.9034    5.7708    6.2148 C.3      1 ZINC000003995991   -0.1300
14     C14    -4.1047    6.6168    7.2084 C.3      1 ZINC000003995991   -0.1200
15     C15    -4.1793    8.0894    6.7999 C.3      1 ZINC000003995991   -0.1100
16     C16    -3.3806    8.9354    7.7935 C.3      1 ZINC000003995991   -0.0900
17     C17    -1.8989    8.5649    7.7032 C.3      1 ZINC000003995991   -0.1200
18     C18    -1.1002    9.4109    8.6968 C.3      1 ZINC000003995991   -0.1200
19     C19    -1.2765   10.8933    8.3617 C.3      1 ZINC000003995991   -0.1200
20     C20    -2.7582   11.2638    8.4520 C.3      1 ZINC000003995991   -0.1200
21     C21    -3.5570   10.4178    7.4584 C.3      1 ZINC000003995991   -0.1200
22     C22    -6.9020    3.2490    5.8897 C.2      1 ZINC000003995991    0.7100
23     O23    -7.4476    3.7054    6.8758 O.2      1 ZINC000003995991   -0.5900
24     N24    -7.6056    2.5037    5.0145 N.am     1 ZINC000003995991   -0.7400
25     C25    -9.0277    2.2437    5.2512 C.3      1 ZINC000003995991    0.1600
26     C26    -9.8571    3.4065    4.7027 C.3      1 ZINC000003995991   -0.1300
27     C27   -11.3423    3.1349    4.9500 C.3      1 ZINC000003995991   -0.1200
28     C28   -11.7487    1.8405    4.2427 C.3      1 ZINC000003995991   -0.1200
29     C29   -10.9194    0.6776    4.7912 C.3      1 ZINC000003995991   -0.1100
30     C30    -9.4341    0.9492    4.5439 C.3      1 ZINC000003995991   -0.1300
31     C31    -4.4140    0.2264    2.6905 C.ar     1 ZINC000003995991   -0.1100
32     C32    -3.7990   -0.2893    1.5668 C.ar     1 ZINC000003995991   -0.1100
33     C33     0.2554    1.1871    0.2680 C.2      1 ZINC000003995991    0.5000
34     O34     1.3601    1.6692    0.4514 O.co2    1 ZINC000003995991   -0.6800
35     O35    -0.7149    1.9152    0.1456 O.co2    1 ZINC000003995991   -0.6600
36     H36     1.5566   -0.5842    1.7455 H        1 ZINC000003995991    0.0700
37     H37    -0.1309   -0.6622    2.3062 H        1 ZINC000003995991    0.0600
38     H38     0.5703   -2.0255    1.4019 H        1 ZINC000003995991    0.0500
39     H39     0.7608   -1.9306   -1.0563 H        1 ZINC000003995991    0.0500
40     H40     0.6384   -0.3626   -1.8898 H        1 ZINC000003995991    0.0600
41     H41     1.9841   -0.6706   -0.7662 H        1 ZINC000003995991    0.0700
42     H42    -0.6761    0.9130    2.0748 H        1 ZINC000003995991    0.1400
43     H43    -1.7856    1.8342    4.0687 H        1 ZINC000003995991    0.1200
44     H44    -5.1752    0.8932    5.1174 H        1 ZINC000003995991    0.0700
45     H45    -3.6411    1.6439    5.6188 H        1 ZINC000003995991    0.0700
46     H46    -4.1276    3.6013    4.1764 H        1 ZINC000003995991    0.0900
47     H47    -5.6617    2.8506    3.6750 H        1 ZINC000003995991    0.0700
48     H48    -5.2471    4.1768    7.6225 H        1 ZINC000003995991    0.0800
49     H49    -3.7884    3.9734    6.6230 H        1 ZINC000003995991    0.0800
50     H50    -4.4852    5.8924    5.2157 H        1 ZINC000003995991    0.0600
51     H51    -5.9439    6.0957    6.2151 H        1 ZINC000003995991    0.0600
52     H52    -4.5230    6.4953    8.2076 H        1 ZINC000003995991    0.0600
53     H53    -3.0643    6.2920    7.2081 H        1 ZINC000003995991    0.0700
54     H54    -3.7611    8.2109    5.8007 H        1 ZINC000003995991    0.0600
55     H55    -5.2198    8.4143    6.8002 H        1 ZINC000003995991    0.0600
56     H56    -3.7416    8.7460    8.8044 H        1 ZINC000003995991    0.0700
57     H57    -1.7733    7.5088    7.9420 H        1 ZINC000003995991    0.0700
58     H58    -1.5380    8.7543    6.6923 H        1 ZINC000003995991    0.0600
59     H59    -1.4611    9.2215    9.7077 H        1 ZINC000003995991    0.0600
60     H60    -0.0446    9.1469    8.6325 H        1 ZINC000003995991    0.0600
61     H61    -0.7075   11.4960    9.0696 H        1 ZINC000003995991    0.0600
62     H62    -0.9156   11.0827    7.3508 H        1 ZINC000003995991    0.0600
63     H63    -3.1192   11.0744    9.4629 H        1 ZINC000003995991    0.0600
64     H64    -2.8839   12.3199    8.2133 H        1 ZINC000003995991    0.0600
65     H65    -3.1960   10.6072    6.4475 H        1 ZINC000003995991    0.0600
66     H66    -4.6126   10.6818    7.5228 H        1 ZINC000003995991    0.0600
67     H67    -7.1703    2.1396    4.2278 H        1 ZINC000003995991    0.4000
68     H68    -9.2055    2.1439    6.3220 H        1 ZINC000003995991    0.0900
69     H69    -9.5675    4.3287    5.2066 H        1 ZINC000003995991    0.0700
70     H70    -9.6793    3.5063    3.6320 H        1 ZINC000003995991    0.0600
71     H71   -11.5201    3.0351    6.0207 H        1 ZINC000003995991    0.0600
72     H72   -11.9331    3.9634    4.5592 H        1 ZINC000003995991    0.0600
73     H73   -12.8068    1.6470    4.4188 H        1 ZINC000003995991    0.0600
74     H74   -11.5709    1.9403    3.1719 H        1 ZINC000003995991    0.0600
75     H75   -11.0972    0.5778    5.8619 H        1 ZINC000003995991    0.0600
76     H76   -11.2089   -0.2445    4.2873 H        1 ZINC000003995991    0.0700
77     H77    -9.2563    1.0490    3.4732 H        1 ZINC000003995991    0.0700
78     H78    -8.8433    0.1208    4.9347 H        1 ZINC000003995991    0.0700
79     H79    -5.4624    0.0361    2.8667 H        1 ZINC000003995991    0.1100
80     H80    -4.3649   -0.8856    0.8664 H        1 ZINC000003995991    0.1200
@<TRIPOS>BOND
1     1     2     1
2     1     36    1
3     1     37    1
4     1     38    1
5     2     3     1
6     2     4     1
7     2     33    1
8     3     39    1
9     3     40    1
10    3     41    1
11    4     5     1
12    5     32    ar
13    5     6     ar
14    6     7     ar
15    6     42    1
16    7     8     ar
17    7     43    1
18    8     9     1
19    8     31    ar
20    9     10    1
21    9     44    1
22    9     45    1
23    10    11    1
24    10    46    1
25    10    47    1
26    11    12    1
27    11    22    am
28    12    13    1
29    12    48    1
30    12    49    1
31    13    14    1
32    13    50    1
33    13    51    1
34    14    15    1
35    14    52    1
36    14    53    1
37    15    16    1
38    15    54    1
39    15    55    1
40    16    21    1
41    16    17    1
42    16    56    1
43    17    18    1
44    17    57    1
45    17    58    1
46    18    19    1
47    18    59    1
48    18    60    1
49    19    20    1
50    19    61    1
51    19    62    1
52    20    21    1
53    20    63    1
54    20    64    1
55    21    65    1
56    21    66    1
57    22    23    2
58    22    24    am
59    24    25    1
60    24    67    1
61    25    30    1
62    25    26    1
63    25    68    1
64    26    27    1
65    26    69    1
66    26    70    1
67    27    28    1
68    27    71    1
69    27    72    1
70    28    29    1
71    28    73    1
72    28    74    1
73    29    30    1
74    29    75    1
75    29    76    1
76    30    77    1
77    30    78    1
78    31    32    ar
79    31    79    1
80    32    80    1
81    33    34    ar
82    33    35    ar
@<TRIPOS>SUBSTRUCTURE
1   ZINC000003995991 1     RESIDUE    1   A     ZIN   1


@<TRIPOS>MOLECULE
CC(C)C1=CC2=C(C=C1)N(C(=C2SC(C)(C)C)CC(C)(C)C(=O)O)CC3=CC=C(C=C3)Cl
  65   67    0    0    0
SMALL
USER_CHARGES
NO_NAME
@<TRIPOS>ATOM
    1 C1       -0.0187     1.5258     0.0104 C.3    1 <0>      -0.1400
    2 C2        0.0021    -0.0041     0.0020 C.3    1 <0>      -0.0500
    3 C3        0.7421    -0.5109     1.2415 C.3    1 <0>      -0.1400
    4 C4       -1.4117    -0.5257     0.0127 C.ar   1 <0>      -0.1000
    5 C5       -2.2580    -0.1996     1.0635 C.ar   1 <0>      -0.1000
    6 C6       -3.5539    -0.6664     1.0927 C.ar   1 <0>      -0.1200
    7 C7       -4.0215    -1.4725     0.0596 C.ar   1 <0>       0.0900
    8 C8       -3.1595    -1.7995    -1.0033 C.ar   1 <0>      -0.0600
    9 C9       -1.8522    -1.3114    -1.0150 C.ar   1 <0>      -0.0700
   10 C10      -3.9375    -2.6479    -1.9139 C.2    1 <0>      -0.2100
   11 S11      -3.3728    -3.3596    -3.4237 S.3    1 <0>      -0.0900
   12 C12      -2.7032    -4.9604    -2.8948 C.3    1 <0>      -0.0600
   13 C13      -3.8111    -5.7837    -2.2349 C.3    1 <0>      -0.1400
   14 C14      -2.1633    -5.7145    -4.1117 C.3    1 <0>      -0.1300
   15 C15      -1.5703    -4.7331    -1.8919 C.3    1 <0>      -0.1300
   16 C16      -5.1651    -2.7789    -1.3761 C.2    1 <0>       0.1800
   17 C17      -6.2959    -3.5718    -1.9790 C.3    1 <0>      -0.0400
   18 C18      -7.1183    -2.6681    -2.8998 C.3    1 <0>      -0.1200
   19 C19      -7.6881    -1.5002    -2.0921 C.3    1 <0>      -0.1300
   20 C20      -6.2228    -2.1272    -4.0162 C.3    1 <0>      -0.1200
   21 C21      -8.2492    -3.4610    -3.5027 C.2    1 <0>       0.5100
   22 O22      -8.3848    -4.6397    -3.2219 O.co2  1 <0>      -0.7000
   23 O23      -9.0285    -2.9238    -4.2712 O.co2  1 <0>      -0.6900
   24 N24      -5.2309    -2.0798    -0.1925 N.pl3  1 <0>      -0.4700
   25 C25      -6.4118    -1.9945     0.6703 C.3    1 <0>       0.1300
   26 C26      -6.3842    -3.1199     1.6723 C.ar   1 <0>      -0.1000
   27 C27      -6.9743    -4.3320     1.3663 C.ar   1 <0>      -0.0800
   28 C28      -6.9492    -5.3645     2.2848 C.ar   1 <0>      -0.1100
   29 C29      -6.3334    -5.1848     3.5106 C.ar   1 <0>      -0.0300
   30 Cl30     -6.3011    -6.4813     4.6646 Cl     1 <0>      -0.0700
   31 C31      -5.7430    -3.9714     3.8162 C.ar   1 <0>      -0.1100
   32 C32      -5.7638    -2.9415     2.8947 C.ar   1 <0>      -0.0900
   33 H33       1.0039     1.9031     0.0027 H      1 <0>       0.0500
   34 H34      -0.5459     1.8868    -0.8726 H      1 <0>       0.0600
   35 H35      -0.5289     1.8773     0.9072 H      1 <0>       0.0500
   36 H36       0.5123    -0.3556    -0.8948 H      1 <0>       0.0700
   37 H37       1.7647    -0.1336     1.2338 H      1 <0>       0.0500
   38 H38       0.2319    -0.1594     2.1383 H      1 <0>       0.0500
   39 H39       0.7568    -1.6008     1.2356 H      1 <0>       0.0500
   40 H40      -1.8969     0.4260     1.8664 H      1 <0>       0.1200
   41 H41      -4.2045    -0.4078     1.9150 H      1 <0>       0.1100
   42 H42      -1.1882    -1.5604    -1.8296 H      1 <0>       0.1200
   43 H43      -4.6182    -5.9456    -2.9494 H      1 <0>       0.0700
   44 H44      -3.4088    -6.7456    -1.9171 H      1 <0>       0.0500
   45 H45      -4.1957    -5.2465    -1.3680 H      1 <0>       0.0600
   46 H46      -1.3740    -5.1279    -4.5819 H      1 <0>       0.0600
   47 H47      -1.7610    -6.6764    -3.7940 H      1 <0>       0.0600
   48 H48      -2.9704    -5.8764    -4.8263 H      1 <0>       0.0600
   49 H49      -1.9549    -4.1959    -1.0249 H      1 <0>       0.0600
   50 H50      -1.1680    -5.6950    -1.5741 H      1 <0>       0.0500
   51 H51      -0.7810    -4.1466    -2.3620 H      1 <0>       0.0600
   52 H52      -5.8900    -4.4038    -2.5544 H      1 <0>       0.1000
   53 H53      -6.9339    -3.9572    -1.1837 H      1 <0>       0.0700
   54 H54      -6.8702    -0.9267    -1.6560 H      1 <0>       0.0400
   55 H55      -8.2740    -0.8564    -2.7481 H      1 <0>       0.0600
   56 H56      -8.3261    -1.8856    -1.2968 H      1 <0>       0.0400
   57 H57      -5.8168    -2.9592    -4.5916 H      1 <0>       0.0600
   58 H58      -6.8086    -1.4834    -4.6722 H      1 <0>       0.0500
   59 H59      -5.4048    -1.5537    -3.5801 H      1 <0>       0.0400
   60 H60      -6.4094    -1.0398     1.1962 H      1 <0>       0.1000
   61 H61      -7.3128    -2.0719     0.0618 H      1 <0>       0.1200
   62 H62      -7.4552    -4.4721     0.4095 H      1 <0>       0.1400
   63 H63      -7.4106    -6.3113     2.0458 H      1 <0>       0.1400
   64 H64      -5.2625    -3.8304     4.7731 H      1 <0>       0.1300
   65 H65      -5.3026    -1.9945     3.1330 H      1 <0>       0.1300
@<TRIPOS>BOND
   1    1    2 1
   2    1   33 1
   3    1   34 1
   4    1   35 1
   5    2    3 1
   6    2    4 1
   7    2   36 1
   8    3   37 1
   9    3   38 1
  10    3   39 1
  11    4    9 ar
  12    4    5 ar
  13    5    6 ar
  14    5   40 1
  15    6    7 ar
  16    6   41 1
  17    7   24 1
  18    7    8 ar
  19    8    9 ar
  20    8   10 1
  21    9   42 1
  22   10   11 1
  23   10   16 2
  24   11   12 1
  25   12   13 1
  26   12   14 1
  27   12   15 1
  28   13   43 1
  29   13   44 1
  30   13   45 1
  31   14   46 1
  32   14   47 1
  33   14   48 1
  34   15   49 1
  35   15   50 1
  36   15   51 1
  37   16   17 1
  38   16   24 1
  39   17   18 1
  40   17   52 1
  41   17   53 1
  42   18   19 1
  43   18   20 1
  44   18   21 1
  45   19   54 1
  46   19   55 1
  47   19   56 1
  48   20   57 1
  49   20   58 1
  50   20   59 1
  51   21   22 ar
  52   21   23 ar
  53   24   25 1
  54   25   26 1
  55   25   60 1
  56   25   61 1
  57   26   32 ar
  58   26   27 ar
  59   27   28 ar
  60   27   62 1
  61   28   29 ar
  62   28   63 1
  63   29   30 1
  64   29   31 ar
  65   31   32 ar
  66   31   64 1
  67   32   65 1


@<TRIPOS>MOLECULE
CC1=C(C2=C(CCC(O2)(C)COC3=CC=C(C=C3)CC4C(=O)NC(=O)S4)C(=C1O)C)C
57    60    1     0     0
SMALL
USER_CHARGES
@<TRIPOS>ATOM
1      C1     -0.0184    1.5028    0.0103 C.3      1 ZINC000000968276   -0.1100
2      C2      0.0021   -0.0041    0.0020 C.ar     1 ZINC000000968276   -0.0800
3      C3      0.0057   -0.6883   -1.1958 C.ar     1 ZINC000000968276   -0.1000
4      C4     -0.0085    0.0744   -2.4954 C.3      1 ZINC000000968276   -0.1100
5      C5      0.0229   -2.0794   -1.2093 C.ar     1 ZINC000000968276    0.1400
6      C6      0.0358   -2.7783   -0.0153 C.ar     1 ZINC000000968276   -0.1500
7      C7      0.0480   -4.2857    0.0127 C.3      1 ZINC000000968276   -0.0700
8      C8      0.4841   -4.8237   -1.3523 C.3      1 ZINC000000968276   -0.1500
9      C9     -0.3235   -4.0984   -2.4364 C.3      1 ZINC000000968276    0.1200
10     C10    -1.8194   -4.2530   -2.1549 C.3      1 ZINC000000968276   -0.1700
11     C11     0.0067   -4.6907   -3.8079 C.3      1 ZINC000000968276    0.0800
12     O12    -0.7478   -4.0119   -4.8140 O.3      1 ZINC000000968276   -0.3100
13     C13    -0.5703   -4.4194   -6.0983 C.ar     1 ZINC000000968276    0.1200
14     C14     0.3075   -5.4551   -6.3837 C.ar     1 ZINC000000968276   -0.2100
15     C15     0.4858   -5.8677   -7.6899 C.ar     1 ZINC000000968276   -0.0500
16     C16    -0.2095   -5.2492   -8.7126 C.ar     1 ZINC000000968276   -0.1100
17     C17    -0.0127   -5.7010  -10.1367 C.3      1 ZINC000000968276   -0.0400
18     C18    -1.0191   -6.8057  -10.4649 C.3      1 ZINC000000968276   -0.0900
19     H19    -2.0356   -6.4749  -10.2519 H        1 ZINC000000968276    0.1100
20     S20    -0.6292   -8.3294   -9.5398 S.3      1 ZINC000000968276   -0.4000
21     C21    -0.3532   -9.3011  -10.9966 C.2      1 ZINC000000968276    0.5800
22     O22    -0.0425  -10.4761  -11.0271 O.2      1 ZINC000000968276   -0.5100
23     N23    -0.5478   -8.5103  -12.0541 N.pl3    1 ZINC000000968276   -0.7200
24     C24    -0.8883   -7.2367  -11.9094 C.2      1 ZINC000000968276    0.5200
25     O25    -1.0733   -6.4902  -12.8466 O.2      1 ZINC000000968276   -0.5400
26     C26    -1.0853   -4.2171   -8.4307 C.ar     1 ZINC000000968276   -0.0800
27     C27    -1.2710   -3.8042   -7.1255 C.ar     1 ZINC000000968276   -0.1500
28     O28     0.0304   -2.7149   -2.4111 O.3      1 ZINC000000968276   -0.2900
29     C29     0.0345   -2.0904    1.1868 C.ar     1 ZINC000000968276   -0.0800
30     C30     0.0518   -2.8519    2.4871 C.3      1 ZINC000000968276   -0.1100
31     C31     0.0230   -0.7051    1.1989 C.ar     1 ZINC000000968276    0.0700
32     O32     0.0215   -0.0341    2.3816 O.3      1 ZINC000000968276   -0.4900
33     H33     1.0042    1.8801    0.0026 H        1 ZINC000000968276    0.0700
34     H34    -0.5455    1.8639   -0.8728 H        1 ZINC000000968276    0.0700
35     H35    -0.5286    1.8543    0.9071 H        1 ZINC000000968276    0.0700
36     H36     1.0157    0.2707   -2.8127 H        1 ZINC000000968276    0.0700
37     H37    -0.5181   -0.5154   -3.2573 H        1 ZINC000000968276    0.0700
38     H38    -0.5332    1.0196   -2.3563 H        1 ZINC000000968276    0.0700
39     H39     0.7452   -4.6286    0.7772 H        1 ZINC000000968276    0.0800
40     H40    -0.9521   -4.6522    0.2443 H        1 ZINC000000968276    0.0800
41     H41     1.5476   -4.6353   -1.4987 H        1 ZINC000000968276    0.0800
42     H42     0.2896   -5.8949   -1.4043 H        1 ZINC000000968276    0.0900
43     H43    -2.0524   -3.8217   -1.1813 H        1 ZINC000000968276    0.0700
44     H44    -2.3897   -3.7366   -2.9270 H        1 ZINC000000968276    0.0800
45     H45    -2.0818   -5.3110   -2.1558 H        1 ZINC000000968276    0.0700
46     H46     1.0712   -4.5703   -4.0090 H        1 ZINC000000968276    0.0700
47     H47    -0.2471   -5.7507   -3.8166 H        1 ZINC000000968276    0.0800
48     H48     0.8513   -5.9381   -5.5853 H        1 ZINC000000968276    0.1200
49     H49     1.1691   -6.6739   -7.9126 H        1 ZINC000000968276    0.1300
50     H50    -0.1664   -4.8577  -10.8100 H        1 ZINC000000968276    0.0900
51     H51     1.0003   -6.0841  -10.2597 H        1 ZINC000000968276    0.0800
52     H52    -1.6274   -3.7357   -9.2312 H        1 ZINC000000968276    0.1300
53     H53    -1.9552   -2.9980   -6.9059 H        1 ZINC000000968276    0.1300
54     H54     1.0835   -3.0228    2.7944 H        1 ZINC000000968276    0.0700
55     H55    -0.4646   -2.2740    3.2535 H        1 ZINC000000968276    0.0700
56     H56    -0.4510   -3.8098    2.3539 H        1 ZINC000000968276    0.0700
57     H57     0.9044    0.1674    2.7206 H        1 ZINC000000968276    0.3800
@<TRIPOS>BOND
1     1     2     1
2     1     33    1
3     1     34    1
4     1     35    1
5     2     31    ar
6     2     3     ar
7     3     4     1
8     3     5     ar
9     4     36    1
10    4     37    1
11    4     38    1
12    5     28    1
13    5     6     ar
14    6     7     1
15    6     29    ar
16    7     8     1
17    7     39    1
18    7     40    1
19    8     9     1
20    8     41    1
21    8     42    1
22    9     10    1
23    9     11    1
24    9     28    1
25    10    43    1
26    10    44    1
27    10    45    1
28    11    12    1
29    11    46    1
30    11    47    1
31    12    13    1
32    13    27    ar
33    13    14    ar
34    14    15    ar
35    14    48    1
36    15    16    ar
37    15    49    1
38    16    17    1
39    16    26    ar
40    17    18    1
41    17    50    1
42    17    51    1
43    18    19    1
44    18    24    1
45    18    20    1
46    20    21    1
47    21    22    2
48    21    23    1
49    23    24    1
50    24    25    2
51    26    27    ar
52    26    52    1
53    27    53    1
54    29    30    1
55    29    31    ar
56    30    54    1
57    30    55    1
58    30    56    1
59    31    32    1
60    32    57    1
@<TRIPOS>SUBSTRUCTURE
1   ZINC000000968276 1     RESIDUE    1   A     ZIN   1


@<TRIPOS>MOLECULE
CCC1=CC=C(C=C1)C=C2C(=O)NC(=S)S2
27    28    1     0     0
SMALL
USER_CHARGES
@<TRIPOS>ATOM
1      C1      0.0995    1.3386    0.0318 C.3      1 ZINC000012406714   -0.1500
2      C2      0.0670   -0.1899    0.0904 C.3      1 ZINC000012406714   -0.0900
3      C3     -1.3638   -0.6628    0.0779 C.ar     1 ZINC000012406714   -0.0500
4      C4     -2.0449   -0.8269    1.2717 C.ar     1 ZINC000012406714   -0.1200
5      C5     -3.3539   -1.2595    1.2690 C.ar     1 ZINC000012406714   -0.0900
6      C6     -3.9940   -1.5326    0.0550 C.ar     1 ZINC000012406714   -0.1100
7      C7     -5.3897   -1.9938    0.0428 C.2      1 ZINC000012406714    0.1000
8      C8     -6.1892   -1.7639    1.1138 C.2      1 ZINC000012406714   -0.2800
9      S9     -5.8392   -0.7751    2.5456 S.3      1 ZINC000012406714    0.1400
10     C10    -7.4044   -1.0844    3.3172 C.2      1 ZINC000012406714    0.2500
11     S11    -7.9350   -0.4742    4.8262 S.2      1 ZINC000012406714   -0.3600
12     N12    -8.0921   -1.8855    2.4957 N.am     1 ZINC000012406714   -0.6200
13     C13    -7.5475   -2.2706    1.3535 C.2      1 ZINC000012406714    0.5500
14     O14    -8.1234   -2.9980    0.5661 O.2      1 ZINC000012406714   -0.4600
15     C15    -3.2984   -1.3637   -1.1474 C.ar     1 ZINC000012406714   -0.0700
16     C16    -1.9915   -0.9253   -1.1276 C.ar     1 ZINC000012406714   -0.1200
17     H17     1.1344    1.6807    0.0409 H        1 ZINC000012406714    0.0600
18     H18    -0.3873    1.6776   -0.8826 H        1 ZINC000012406714    0.0600
19     H19    -0.4255    1.7465    0.8956 H        1 ZINC000012406714    0.0600
20     H20     0.5920   -0.5978   -0.7734 H        1 ZINC000012406714    0.0800
21     H21     0.5538   -0.5289    1.0048 H        1 ZINC000012406714    0.0800
22     H22    -1.5494   -0.6157    2.2078 H        1 ZINC000012406714    0.1300
23     H23    -3.8838   -1.3878    2.2013 H        1 ZINC000012406714    0.1300
24     H24    -5.7784   -2.5159   -0.8190 H        1 ZINC000012406714    0.1600
25     H25    -8.9858   -2.1781    2.7338 H        1 ZINC000012406714    0.4300
26     H26    -3.7854   -1.5722   -2.0886 H        1 ZINC000012406714    0.1400
27     H27    -1.4533   -0.7941   -2.0547 H        1 ZINC000012406714    0.1300
@<TRIPOS>BOND
1     1     2     1
2     1     17    1
3     1     18    1
4     1     19    1
5     2     3     1
6     2     20    1
7     2     21    1
8     3     16    ar
9     3     4     ar
10    4     5     ar
11    4     22    1
12    5     6     ar
13    5     23    1
14    6     7     1
15    6     15    ar
16    7     8     2
17    7     24    1
18    8     13    1
19    8     9     1
20    9     10    1
21    10    11    2
22    10    12    am
23    12    13    am
24    12    25    1
25    13    14    2
26    15    16    ar
27    15    26    1
28    16    27    1
@<TRIPOS>SUBSTRUCTURE
1   ZINC000012406714 1     RESIDUE    1   A     ZIN   1


@<TRIPOS>MOLECULE
CCN1C2=NC(=NC=C2C=C(C1=O)C3=C(C=C(C=C3)C4=NC(=CN=C4)C)Cl)NCCC5CCN(CC5)C
70    74    1     0     0
SMALL
USER_CHARGES
@<TRIPOS>ATOM
1      C1     -0.0187    1.5258    0.0104 C.3      1 ZINC000205502630   -0.1600
2      C2      0.0021   -0.0041    0.0020 C.3      1 ZINC000205502630    0.1000
3      N3     -1.3723   -0.5112    0.0124 N.am     1 ZINC000205502630   -0.5000
4      C4     -1.9884   -0.7429    1.1875 C.2      1 ZINC000205502630    0.5500
5      O5     -1.4000   -0.5298    2.2326 O.2      1 ZINC000205502630   -0.5000
6      C6     -3.3625   -1.2494    1.2151 C.2      1 ZINC000205502630   -0.1600
7      C7     -4.0393   -1.5035    2.5071 C.ar     1 ZINC000205502630   -0.0100
8      C8     -3.6944   -2.6214    3.2677 C.ar     1 ZINC000205502630   -0.0800
9      C9     -4.3241   -2.8576    4.4696 C.ar     1 ZINC000205502630   -0.0900
10     C10    -5.3068   -1.9797    4.9273 C.ar     1 ZINC000205502630   -0.0300
11     C11    -5.9841   -2.2352    6.2207 C.ar     1 ZINC000205502630    0.1200
12     C12    -5.5658   -3.2890    7.0338 C.ar     1 ZINC000205502630    0.0600
13     N13    -6.1725   -3.5121    8.1845 N.ar     1 ZINC000205502630   -0.4300
14     C14    -7.1745   -2.7389    8.5666 C.ar     1 ZINC000205502630    0.0500
15     C15    -7.5932   -1.6924    7.7628 C.ar     1 ZINC000205502630    0.0900
16     C16    -8.7362   -0.8153    8.2049 C.3      1 ZINC000205502630   -0.1000
17     N17    -6.9891   -1.4573    6.6128 N.ar     1 ZINC000205502630   -0.4300
18     C18    -5.6521   -0.8610    4.1684 C.ar     1 ZINC000205502630   -0.0700
19     C19    -5.0194   -0.6210    2.9680 C.ar     1 ZINC000205502630   -0.0200
20     Cl20   -5.4486    0.7707    2.0233 Cl       1 ZINC000205502630   -0.0600
21     C21    -4.0159   -1.4854    0.0344 C.2      1 ZINC000205502630    0.0200
22     C22    -3.3436   -1.2328   -1.1828 C.ar     1 ZINC000205502630   -0.2800
23     C23    -3.9685   -1.4581   -2.4187 C.ar     1 ZINC000205502630    0.2700
24     N24    -3.2927   -1.2047   -3.5237 N.ar     1 ZINC000205502630   -0.5800
25     C25    -2.0468   -0.7458   -3.4780 C.ar     1 ZINC000205502630    0.6100
26     N26    -1.3859   -0.4971   -4.6642 N.pl3    1 ZINC000205502630   -0.6900
27     C27    -2.0591   -0.7396   -5.9426 C.3      1 ZINC000205502630    0.1300
28     C28    -1.1134   -0.3861   -7.0922 C.3      1 ZINC000205502630   -0.1300
29     C29    -1.8165   -0.6393   -8.4272 C.3      1 ZINC000205502630   -0.0900
30     C30    -2.9971    0.3248   -8.5752 C.3      1 ZINC000205502630   -0.1500
31     C31    -3.6467    0.1206   -9.9455 C.3      1 ZINC000205502630   -0.0100
32     N32    -2.6623    0.3843  -11.0019 N.4      1 ZINC000205502630   -0.3900
33     H33    -2.2973    1.3188  -10.8944 H        1 ZINC000205502630    0.4200
34     C34    -3.3101    0.2612  -12.3146 C.3      1 ZINC000205502630   -0.0500
35     C35    -1.5619   -0.5828  -10.9100 C.3      1 ZINC000205502630   -0.0100
36     C36    -0.8321   -0.4056   -9.5768 C.3      1 ZINC000205502630   -0.1400
37     N37    -1.4157   -0.5178   -2.3365 N.ar     1 ZINC000205502630   -0.6000
38     C38    -2.0207   -0.7397   -1.1749 C.ar     1 ZINC000205502630    0.4700
39     H39     1.0039    1.9031    0.0027 H        1 ZINC000205502630    0.0800
40     H40    -0.5459    1.8868   -0.8726 H        1 ZINC000205502630    0.0600
41     H41    -0.5289    1.8773    0.9072 H        1 ZINC000205502630    0.0600
42     H42     0.5123   -0.3556   -0.8948 H        1 ZINC000205502630    0.1000
43     H43     0.5293   -0.3651    0.8851 H        1 ZINC000205502630    0.1000
44     H44    -2.9339   -3.3017    2.9138 H        1 ZINC000205502630    0.1400
45     H45    -4.0571   -3.7231    5.0578 H        1 ZINC000205502630    0.1400
46     H46    -4.7475   -3.9212    6.7220 H        1 ZINC000205502630    0.1700
47     H47    -7.6685   -2.9246    9.5089 H        1 ZINC000205502630    0.1700
48     H48    -8.3480    0.0235    8.7827 H        1 ZINC000205502630    0.0900
49     H49    -9.2655   -0.4395    7.3294 H        1 ZINC000205502630    0.0800
50     H50    -9.4216   -1.3956    8.8226 H        1 ZINC000205502630    0.0800
51     H51    -6.4127   -0.1815    4.5233 H        1 ZINC000205502630    0.1500
52     H52    -5.0291   -1.8592    0.0337 H        1 ZINC000205502630    0.1500
53     H53    -4.9809   -1.8313   -2.4647 H        1 ZINC000205502630    0.1900
54     H54    -0.4758   -0.1618   -4.6513 H        1 ZINC000205502630    0.4200
55     H55    -2.3387   -1.7908   -6.0123 H        1 ZINC000205502630    0.0700
56     H56    -2.9542   -0.1206   -6.0050 H        1 ZINC000205502630    0.0700
57     H57    -0.8337    0.6652   -7.0224 H        1 ZINC000205502630    0.0800
58     H58    -0.2183   -1.0050   -7.0297 H        1 ZINC000205502630    0.0800
59     H59    -2.1775   -1.6672   -8.4598 H        1 ZINC000205502630    0.0900
60     H60    -3.7291    0.1268   -7.7922 H        1 ZINC000205502630    0.1200
61     H61    -2.6413    1.3517   -8.4905 H        1 ZINC000205502630    0.0900
62     H62    -4.0023   -0.9064  -10.0291 H        1 ZINC000205502630    0.1300
63     H63    -4.4877    0.8053  -10.0541 H        1 ZINC000205502630    0.1300
64     H64    -4.1239    0.9827  -12.3872 H        1 ZINC000205502630    0.1200
65     H65    -2.5799    0.4569  -13.0999 H        1 ZINC000205502630    0.1200
66     H66    -3.7071   -0.7472  -12.4307 H        1 ZINC000205502630    0.1200
67     H67    -1.9620   -1.5948  -10.9730 H        1 ZINC000205502630    0.1300
68     H68    -0.8639   -0.4173  -11.7307 H        1 ZINC000205502630    0.1300
69     H69    -0.4314    0.6061   -9.5129 H        1 ZINC000205502630    0.0900
70     H70    -0.0166   -1.1257   -9.5098 H        1 ZINC000205502630    0.1100
@<TRIPOS>BOND
1     1     2     1
2     1     39    1
3     1     40    1
4     1     41    1
5     2     3     1
6     2     42    1
7     2     43    1
8     3     38    1
9     3     4     am
10    4     5     2
11    4     6     1
12    6     7     1
13    6     21    2
14    7     19    ar
15    7     8     ar
16    8     9     ar
17    8     44    1
18    9     10    ar
19    9     45    1
20    10    11    1
21    10    18    ar
22    11    17    ar
23    11    12    ar
24    12    13    ar
25    12    46    1
26    13    14    ar
27    14    15    ar
28    14    47    1
29    15    16    1
30    15    17    ar
31    16    48    1
32    16    49    1
33    16    50    1
34    18    19    ar
35    18    51    1
36    19    20    1
37    21    22    1
38    21    52    1
39    22    38    ar
40    22    23    ar
41    23    24    ar
42    23    53    1
43    24    25    ar
44    25    26    1
45    25    37    ar
46    26    27    1
47    26    54    1
48    27    28    1
49    27    55    1
50    27    56    1
51    28    29    1
52    28    57    1
53    28    58    1
54    29    36    1
55    29    30    1
56    29    59    1
57    30    31    1
58    30    60    1
59    30    61    1
60    31    32    1
61    31    62    1
62    31    63    1
63    32    33    1
64    32    34    1
65    32    35    1
66    34    64    1
67    34    65    1
68    34    66    1
69    35    36    1
70    35    67    1
71    35    68    1
72    36    69    1
73    36    70    1
74    37    38    ar
@<TRIPOS>SUBSTRUCTURE
1   ZINC000205502630 1     RESIDUE    1   A     ZIN   1


@<TRIPOS>MOLECULE
CCN1C2=NC(=NC=C2C=C(C1=O)C3=C(C=C(C=C3)C4=CN=CS4)Cl)NC5=CC=C(C=C5)N6CCN(CC6)C
68    73    1     0     0
SMALL
USER_CHARGES
@<TRIPOS>ATOM
1      C1      0.0449    2.1432    0.5294 C.3      1 ZINC000098209617   -0.1600
2      C2      0.0984    0.6372    0.2645 C.3      1 ZINC000098209617    0.1000
3      N3      0.7796   -0.0303    1.3765 N.am     1 ZINC000098209617   -0.5000
4      C4      2.1157   -0.1962    1.3365 C.2      1 ZINC000098209617    0.5500
5      O5      2.7483    0.2092    0.3778 O.2      1 ZINC000098209617   -0.5000
6      C6      2.8118   -0.8612    2.4406 C.2      1 ZINC000098209617   -0.1500
7      C7      4.2804   -1.0428    2.3963 C.ar     1 ZINC000098209617   -0.0200
8      C8      4.8387   -2.0128    1.5624 C.ar     1 ZINC000098209617   -0.0700
9      C9      6.2043   -2.1824    1.5211 C.ar     1 ZINC000098209617   -0.1100
10     C10     7.0319   -1.3836    2.3134 C.ar     1 ZINC000098209617    0.0100
11     C11     8.4976   -1.5656    2.2685 C.2      1 ZINC000098209617   -0.2000
12     C12     9.4088   -0.8687    2.9826 C.2      1 ZINC000098209617    0.0600
13     N13    10.6545   -1.2243    2.7603 N.2      1 ZINC000098209617   -0.4700
14     C14    10.8562   -2.1731    1.9080 C.2      1 ZINC000098209617    0.0200
15     S15     9.3689   -2.7353    1.2799 S.3      1 ZINC000098209617    0.1500
16     C16     6.4739   -0.4122    3.1480 C.ar     1 ZINC000098209617   -0.0900
17     C17     5.1078   -0.2392    3.1851 C.ar     1 ZINC000098209617   -0.0100
18     Cl18    4.4134    0.9676    4.2220 Cl       1 ZINC000098209617   -0.0600
19     C19     2.0916   -1.3131    3.5146 C.2      1 ZINC000098209617    0.0200
20     C20     0.6909   -1.1248    3.5283 C.ar     1 ZINC000098209617   -0.2700
21     C21    -0.0918   -1.5692    4.6047 C.ar     1 ZINC000098209617    0.2600
22     N22    -1.3953   -1.3664    4.5640 N.ar     1 ZINC000098209617   -0.5700
23     C23    -1.9644   -0.7555    3.5305 C.ar     1 ZINC000098209617    0.6000
24     N24    -3.3330   -0.5691    3.5390 N.pl3    1 ZINC000098209617   -0.6300
25     C25    -4.0798   -0.9141    4.6727 C.ar     1 ZINC000098209617    0.1600
26     C26    -3.5287   -0.7655    5.9387 C.ar     1 ZINC000098209617   -0.0800
27     C27    -4.2648   -1.1056    7.0563 C.ar     1 ZINC000098209617   -0.1000
28     C28    -5.5564   -1.5958    6.9143 C.ar     1 ZINC000098209617    0.0700
29     N29    -6.3026   -1.9400    8.0469 N.3      1 ZINC000098209617   -0.4800
30     C30    -5.5905   -2.9316    8.8654 C.3      1 ZINC000098209617    0.0300
31     C31    -6.4107   -3.2358   10.1210 C.3      1 ZINC000098209617    0.0000
32     N32    -7.7291   -3.7530    9.7315 N.4      1 ZINC000098209617   -0.3900
33     H33    -7.6124   -4.5917    9.1828 H        1 ZINC000098209617    0.4200
34     C34    -8.5095   -4.0615   10.9372 C.3      1 ZINC000098209617   -0.0500
35     C35    -8.4379   -2.7423    8.9355 C.3      1 ZINC000098209617    0.0000
36     C36    -7.6345   -2.4340    7.6701 C.3      1 ZINC000098209617    0.0200
37     C37    -6.1076   -1.7439    5.6482 C.ar     1 ZINC000098209617   -0.1400
38     C38    -5.3732   -1.3993    4.5309 C.ar     1 ZINC000098209617   -0.1200
39     N39    -1.2675   -0.3184    2.4925 N.ar     1 ZINC000098209617   -0.5900
40     C40     0.0507   -0.4752    2.4505 C.ar     1 ZINC000098209617    0.4700
41     H41     1.0590    2.5323    0.6205 H        1 ZINC000098209617    0.0600
42     H42    -0.4619    2.6399   -0.2979 H        1 ZINC000098209617    0.0800
43     H43    -0.5005    2.3302    1.4545 H        1 ZINC000098209617    0.0600
44     H44    -0.9157    0.2481    0.1734 H        1 ZINC000098209617    0.1000
45     H45     0.6438    0.4502   -0.6606 H        1 ZINC000098209617    0.1000
46     H46     4.1992   -2.6307    0.9495 H        1 ZINC000098209617    0.1400
47     H47     6.6358   -2.9336    0.8761 H        1 ZINC000098209617    0.1300
48     H48     9.1369   -0.0867    3.6762 H        1 ZINC000098209617    0.1800
49     H49    11.8267   -2.5600    1.6343 H        1 ZINC000098209617    0.2000
50     H50     7.1135    0.2056    3.7608 H        1 ZINC000098209617    0.1400
51     H51     2.5865   -1.8062    4.3382 H        1 ZINC000098209617    0.1500
52     H52     0.3627   -2.0669    5.4485 H        1 ZINC000098209617    0.1900
53     H53    -3.7770   -0.1992    2.7599 H        1 ZINC000098209617    0.4300
54     H54    -2.5243   -0.3843    6.0491 H        1 ZINC000098209617    0.1400
55     H55    -3.8360   -0.9907    8.0408 H        1 ZINC000098209617    0.1300
56     H56    -5.4533   -3.8471    8.2900 H        1 ZINC000098209617    0.0700
57     H57    -4.6176   -2.5337    9.1541 H        1 ZINC000098209617    0.1300
58     H58    -5.8910   -3.9816   10.7226 H        1 ZINC000098209617    0.1400
59     H59    -6.5361   -2.3228   10.7031 H        1 ZINC000098209617    0.1400
60     H60    -8.6352   -3.1557   11.5303 H        1 ZINC000098209617    0.1200
61     H61    -9.4879   -4.4454   10.6483 H        1 ZINC000098209617    0.1200
62     H62    -7.9845   -4.8124   11.5276 H        1 ZINC000098209617    0.1200
63     H63    -9.4211   -3.1222    8.6581 H        1 ZINC000098209617    0.1400
64     H64    -8.5529   -1.8318    9.5236 H        1 ZINC000098209617    0.1400
65     H65    -8.1529   -1.6731    7.0866 H        1 ZINC000098209617    0.1300
66     H66    -7.5310   -3.3413    7.0750 H        1 ZINC000098209617    0.0700
67     H67    -7.1119   -2.1255    5.5377 H        1 ZINC000098209617    0.1300
68     H68    -5.8018   -1.5145    3.5464 H        1 ZINC000098209617    0.1300
@<TRIPOS>BOND
1     1     2     1
2     1     41    1
3     1     42    1
4     1     43    1
5     2     3     1
6     2     44    1
7     2     45    1
8     3     40    1
9     3     4     am
10    4     5     2
11    4     6     1
12    6     7     1
13    6     19    2
14    7     17    ar
15    7     8     ar
16    8     9     ar
17    8     46    1
18    9     10    ar
19    9     47    1
20    10    11    1
21    10    16    ar
22    11    15    1
23    11    12    2
24    12    13    1
25    12    48    1
26    13    14    2
27    14    15    1
28    14    49    1
29    16    17    ar
30    16    50    1
31    17    18    1
32    19    20    1
33    19    51    1
34    20    40    ar
35    20    21    ar
36    21    22    ar
37    21    52    1
38    22    23    ar
39    23    24    1
40    23    39    ar
41    24    25    1
42    24    53    1
43    25    38    ar
44    25    26    ar
45    26    27    ar
46    26    54    1
47    27    28    ar
48    27    55    1
49    28    29    1
50    28    37    ar
51    29    36    1
52    29    30    1
53    30    31    1
54    30    56    1
55    30    57    1
56    31    32    1
57    31    58    1
58    31    59    1
59    32    33    1
60    32    34    1
61    32    35    1
62    34    60    1
63    34    61    1
64    34    62    1
65    35    36    1
66    35    63    1
67    35    64    1
68    36    65    1
69    36    66    1
70    37    38    ar
71    37    67    1
72    38    68    1
73    39    40    ar
@<TRIPOS>SUBSTRUCTURE
1   ZINC000098209617 1     RESIDUE    1   A     ZIN   1


@<TRIPOS>MOLECULE
CCN1C2=NC(=NC=C2C=C(C1=O)C3=C(C=C(C=C3)Cl)Cl)NC4=CC(=C(C=C4)N5CCNCC5)F
59    63    1     0     0
SMALL
USER_CHARGES
@<TRIPOS>ATOM
1      C1     -0.5101    2.1392   -0.1814 C.3      1 ZINC000095930185   -0.1600
2      C2     -0.2834    0.6334   -0.0330 C.3      1 ZINC000095930185    0.1000
3      N3     -1.5763   -0.0554   -0.0125 N.am     1 ZINC000095930185   -0.5000
4      C4     -2.2067   -0.2550    1.1610 C.2      1 ZINC000095930185    0.5500
5      O5     -1.6986    0.1374    2.1962 O.2      1 ZINC000095930185   -0.4900
6      C6     -3.5000   -0.9409    1.1985 C.2      1 ZINC000095930185   -0.1500
7      C7     -4.1931   -1.1592    2.4897 C.ar     1 ZINC000095930185   -0.0200
8      C8     -3.7375   -2.1381    3.3717 C.ar     1 ZINC000095930185   -0.0700
9      C9     -4.3867   -2.3374    4.5730 C.ar     1 ZINC000095930185   -0.1000
10     C10    -5.4889   -1.5676    4.9037 C.ar     1 ZINC000095930185   -0.0200
11     Cl11   -6.3003   -1.8242    6.4168 Cl       1 ZINC000095930185   -0.0500
12     C12    -5.9462   -0.5935    4.0324 C.ar     1 ZINC000095930185   -0.1000
13     C13    -5.3013   -0.3817    2.8301 C.ar     1 ZINC000095930185   -0.0100
14     Cl14   -5.8754    0.8399    1.7384 Cl       1 ZINC000095930185   -0.0500
15     C15    -4.0632   -1.3783    0.0296 C.2      1 ZINC000095930185    0.0200
16     C16    -3.3782   -1.1551   -1.1865 C.ar     1 ZINC000095930185   -0.2700
17     C17    -3.9126   -1.5834   -2.4110 C.ar     1 ZINC000095930185    0.2600
18     N18    -3.2293   -1.3480   -3.5154 N.ar     1 ZINC000095930185   -0.5700
19     C19    -2.0594   -0.7195   -3.4795 C.ar     1 ZINC000095930185    0.6000
20     N20    -1.3862   -0.4984   -4.6652 N.pl3    1 ZINC000095930185   -0.6300
21     C21    -1.9900   -0.8282   -5.8852 C.ar     1 ZINC000095930185    0.1900
22     C22    -3.3636   -0.6975   -6.0374 C.ar     1 ZINC000095930185   -0.0900
23     C23    -3.9602   -1.0225   -7.2405 C.ar     1 ZINC000095930185   -0.0800
24     C24    -3.1866   -1.4798   -8.2978 C.ar     1 ZINC000095930185    0.0400
25     N25    -3.7918   -1.8088   -9.5178 N.3      1 ZINC000095930185   -0.4800
26     C26    -2.8073   -2.3512  -10.4647 C.3      1 ZINC000095930185    0.0100
27     C27    -3.5170   -2.7525  -11.7598 C.3      1 ZINC000095930185   -0.0100
28     N28    -4.1823   -1.5775  -12.3380 N.4      1 ZINC000095930185   -0.5100
29     H29    -3.4965   -0.8619  -12.5267 H        1 ZINC000095930185    0.4300
30     H30    -4.6399   -1.8398  -13.1982 H        1 ZINC000095930185    0.4400
31     C31    -5.1797   -1.0620  -11.3909 C.3      1 ZINC000095930185    0.0000
32     C32    -4.4839   -0.6467  -10.0928 C.3      1 ZINC000095930185    0.0200
33     C33    -1.8102   -1.6111   -8.1463 C.ar     1 ZINC000095930185    0.0800
34     F34    -1.0563   -2.0559   -9.1754 F        1 ZINC000095930185   -0.1300
35     C35    -1.2134   -1.2804   -6.9445 C.ar     1 ZINC000095930185   -0.1600
36     N36    -1.5151   -0.2967   -2.3486 N.ar     1 ZINC000095930185   -0.5900
37     C37    -2.1353   -0.4855   -1.1893 C.ar     1 ZINC000095930185    0.4700
38     H38     0.4518    2.6516   -0.1967 H        1 ZINC000095930185    0.0800
39     H39    -1.0417    2.3366   -1.1123 H        1 ZINC000095930185    0.0600
40     H40    -1.1018    2.5021    0.6590 H        1 ZINC000095930185    0.0600
41     H41     0.3083    0.2704   -0.8733 H        1 ZINC000095930185    0.1000
42     H42     0.2482    0.4360    0.8979 H        1 ZINC000095930185    0.1000
43     H43    -2.8781   -2.7397    3.1150 H        1 ZINC000095930185    0.1400
44     H44    -4.0345   -3.0957    5.2565 H        1 ZINC000095930185    0.1500
45     H45    -6.8064    0.0042    4.2954 H        1 ZINC000095930185    0.1500
46     H46    -5.0161   -1.8865    0.0368 H        1 ZINC000095930185    0.1500
47     H47    -4.8628   -2.0954   -2.4491 H        1 ZINC000095930185    0.1900
48     H48    -0.4954   -0.1149   -4.6529 H        1 ZINC000095930185    0.4300
49     H49    -3.9664   -0.3419   -5.2148 H        1 ZINC000095930185    0.1500
50     H50    -5.0289   -0.9209   -7.3579 H        1 ZINC000095930185    0.1400
51     H51    -2.0554   -1.5926  -10.6821 H        1 ZINC000095930185    0.0800
52     H52    -2.3260   -3.2261  -10.0277 H        1 ZINC000095930185    0.1400
53     H53    -2.7864   -3.1419  -12.4688 H        1 ZINC000095930185    0.1400
54     H54    -4.2593   -3.5210  -11.5442 H        1 ZINC000095930185    0.1400
55     H55    -5.6818   -0.1981  -11.8264 H        1 ZINC000095930185    0.1400
56     H56    -5.9135   -1.8391  -11.1772 H        1 ZINC000095930185    0.1400
57     H57    -5.2257   -0.2780   -9.3844 H        1 ZINC000095930185    0.1300
58     H58    -3.7596    0.1400  -10.3040 H        1 ZINC000095930185    0.0700
59     H59    -0.1447   -1.3817   -6.8261 H        1 ZINC000095930185    0.1500
@<TRIPOS>BOND
1     1     2     1
2     1     38    1
3     1     39    1
4     1     40    1
5     2     3     1
6     2     41    1
7     2     42    1
8     3     37    1
9     3     4     am
10    4     5     2
11    4     6     1
12    6     7     1
13    6     15    2
14    7     13    ar
15    7     8     ar
16    8     9     ar
17    8     43    1
18    9     10    ar
19    9     44    1
20    10    11    1
21    10    12    ar
22    12    13    ar
23    12    45    1
24    13    14    1
25    15    16    1
26    15    46    1
27    16    37    ar
28    16    17    ar
29    17    18    ar
30    17    47    1
31    18    19    ar
32    19    20    1
33    19    36    ar
34    20    21    1
35    20    48    1
36    21    35    ar
37    21    22    ar
38    22    23    ar
39    22    49    1
40    23    24    ar
41    23    50    1
42    24    25    1
43    24    33    ar
44    25    32    1
45    25    26    1
46    26    27    1
47    26    51    1
48    26    52    1
49    27    28    1
50    27    53    1
51    27    54    1
52    28    29    1
53    28    30    1
54    28    31    1
55    31    32    1
56    31    55    1
57    31    56    1
58    32    57    1
59    32    58    1
60    33    34    1
61    33    35    ar
62    35    59    1
63    36    37    ar
@<TRIPOS>SUBSTRUCTURE
1   ZINC000095930185 1     RESIDUE    1   A     ZIN   1


@<TRIPOS>MOLECULE
O=C1N(CCC2(F)CN(C)C2)C3=NC(NC)=NC=C3C=C1C(C=C4)=C(Cl)C=C4N5C=CC=C(C)C5=O
62    66    1     0     0
SMALL
USER_CHARGES
@<TRIPOS>ATOM
1      C1      0.2064    1.1160    1.3075 C.3      1 ZINC000653858615    0.1000
2      N2      0.1007   -0.1557    0.5879 N.pl3    1 ZINC000653858615   -0.6900
3      C3     -1.0812   -0.8688    0.6162 C.ar     1 ZINC000653858615    0.6100
4      N4     -2.1090   -0.3768    1.2990 N.ar     1 ZINC000653858615   -0.5800
5      C5     -3.2606   -1.0193    1.3576 C.ar     1 ZINC000653858615    0.2700
6      C6     -3.3827   -2.2418    0.6806 C.ar     1 ZINC000653858615   -0.2900
7      C7     -4.5908   -2.9756    0.7060 C.2      1 ZINC000653858615    0.0400
8      C8     -4.6600   -4.1636    0.0288 C.2      1 ZINC000653858615   -0.1800
9      C9     -5.9116   -4.9559    0.0356 C.ar     1 ZINC000653858615    0.0000
10     C10    -6.7258   -4.9859   -1.0965 C.ar     1 ZINC000653858615   -0.0700
11     C11    -7.8901   -5.7240   -1.0875 C.ar     1 ZINC000653858615   -0.0900
12     C12    -8.2536   -6.4381    0.0480 C.ar     1 ZINC000653858615    0.1200
13     N13    -9.4362   -7.1862    0.0535 N.am     1 ZINC000653858615   -0.4600
14     C14   -10.5975   -6.6047    0.4552 C.2      1 ZINC000653858615    0.1200
15     C15   -11.7536   -7.3085    0.4684 C.2      1 ZINC000653858615   -0.2200
16     C16   -11.7602   -8.6512    0.0650 C.2      1 ZINC000653858615   -0.0200
17     C17   -10.5934   -9.2327   -0.3377 C.2      1 ZINC000653858615   -0.2000
18     C18   -10.5732  -10.6743   -0.7762 C.3      1 ZINC000653858615   -0.0900
19     C19    -9.4122   -8.4725   -0.3443 C.2      1 ZINC000653858615    0.5200
20     O20    -8.3617   -8.9807   -0.7023 O.2      1 ZINC000653858615   -0.5300
21     C21    -7.4448   -6.4111    1.1780 C.ar     1 ZINC000653858615   -0.0900
22     C22    -6.2759   -5.6788    1.1734 C.ar     1 ZINC000653858615   -0.0100
23     Cl23   -5.2654   -5.6457    2.5846 Cl       1 ZINC000653858615   -0.0500
24     C24    -3.4855   -4.6438   -0.7028 C.2      1 ZINC000653858615    0.5500
25     O25    -3.5385   -5.6994   -1.3082 O.2      1 ZINC000653858615   -0.5000
26     N26    -2.3472   -3.9238   -0.7098 N.am     1 ZINC000653858615   -0.5000
27     C27    -1.1814   -4.4177   -1.4468 C.3      1 ZINC000653858615    0.1000
28     C28    -1.2249   -3.8908   -2.8825 C.3      1 ZINC000653858615   -0.1400
29     C29    -0.0074   -4.4066   -3.6522 C.3      1 ZINC000653858615    0.1000
30     F30     1.1934   -4.2265   -2.9574 F        1 ZINC000653858615   -0.1800
31     C31    -0.1897   -5.8252   -4.2215 C.3      1 ZINC000653858615   -0.0200
32     N32     0.4689   -5.3126   -5.4433 N.3      1 ZINC000653858615   -0.4800
33     C33    -0.2112   -5.7985   -6.6513 C.3      1 ZINC000653858615   -0.0100
34     C34     0.0467   -3.9328   -5.1159 C.3      1 ZINC000653858615   -0.0100
35     C35    -2.2685   -2.7322   -0.0341 C.ar     1 ZINC000653858615    0.4700
36     N36    -1.1502   -2.0153   -0.0426 N.ar     1 ZINC000653858615   -0.6000
37     H37     1.2056    1.5293    1.1702 H        1 ZINC000653858615    0.0800
38     H38    -0.5330    1.8161    0.9184 H        1 ZINC000653858615    0.0700
39     H39     0.0251    0.9489    2.3692 H        1 ZINC000653858615    0.0700
40     H40     0.8611   -0.4967    0.0915 H        1 ZINC000653858615    0.4200
41     H41    -4.0912   -0.6124    1.9153 H        1 ZINC000653858615    0.1900
42     H42    -5.4459   -2.6049    1.2515 H        1 ZINC000653858615    0.1500
43     H43    -6.4444   -4.4310   -1.9793 H        1 ZINC000653858615    0.1400
44     H44    -8.5208   -5.7470   -1.9639 H        1 ZINC000653858615    0.1400
45     H45   -10.5976   -5.5708    0.7672 H        1 ZINC000653858615    0.1600
46     H46   -12.6702   -6.8362    0.7898 H        1 ZINC000653858615    0.1500
47     H47   -12.6787   -9.2191    0.0732 H        1 ZINC000653858615    0.1400
48     H48   -11.5784  -11.0897   -0.7054 H        1 ZINC000653858615    0.0700
49     H49   -10.2265  -10.7355   -1.8078 H        1 ZINC000653858615    0.0700
50     H50    -9.9000  -11.2405   -0.1324 H        1 ZINC000653858615    0.0700
51     H51    -7.7297   -6.9671    2.0590 H        1 ZINC000653858615    0.1400
52     H52    -0.2700   -4.0707   -0.9599 H        1 ZINC000653858615    0.1100
53     H53    -1.1944   -5.5075   -1.4592 H        1 ZINC000653858615    0.1000
54     H54    -2.1363   -4.2377   -3.3694 H        1 ZINC000653858615    0.0900
55     H55    -1.2119   -2.8009   -2.8701 H        1 ZINC000653858615    0.0800
56     H56     0.3882   -6.5863   -3.6975 H        1 ZINC000653858615    0.1000
57     H57    -1.2318   -6.1081   -4.3702 H        1 ZINC000653858615    0.0900
58     H58    -1.2477   -5.4613   -6.6453 H        1 ZINC000653858615    0.0400
59     H59     0.2933   -5.4068   -7.5347 H        1 ZINC000653858615    0.0800
60     H60    -0.1837   -6.8880   -6.6704 H        1 ZINC000653858615    0.0700
61     H61    -0.9263   -3.6622   -5.5261 H        1 ZINC000653858615    0.0900
62     H62     0.8135   -3.1820   -5.3063 H        1 ZINC000653858615    0.1000
@<TRIPOS>BOND
1     1     2     1
2     1     37    1
3     1     38    1
4     1     39    1
5     2     3     1
6     2     40    1
7     3     36    ar
8     3     4     ar
9     4     5     ar
10    5     6     ar
11    5     41    1
12    6     35    ar
13    6     7     1
14    7     8     2
15    7     42    1
16    8     9     1
17    8     24    1
18    9     22    ar
19    9     10    ar
20    10    11    ar
21    10    43    1
22    11    12    ar
23    11    44    1
24    12    13    1
25    12    21    ar
26    13    19    am
27    13    14    1
28    14    15    2
29    14    45    1
30    15    16    1
31    15    46    1
32    16    17    2
33    16    47    1
34    17    18    1
35    17    19    1
36    18    48    1
37    18    49    1
38    18    50    1
39    19    20    2
40    21    22    ar
41    21    51    1
42    22    23    1
43    24    25    2
44    24    26    am
45    26    27    1
46    26    35    1
47    27    28    1
48    27    52    1
49    27    53    1
50    28    29    1
51    28    54    1
52    28    55    1
53    29    34    1
54    29    30    1
55    29    31    1
56    31    32    1
57    31    56    1
58    31    57    1
59    32    33    1
60    32    34    1
61    33    58    1
62    33    59    1
63    33    60    1
64    34    61    1
65    34    62    1
66    35    36    ar
@<TRIPOS>SUBSTRUCTURE
1   ZINC000653858615 1     RESIDUE    1   A     ZIN   1


@<TRIPOS>MOLECULE
O=C(NC1=CC=C(F)C(C(F)(F)F)=C1)NC2=NN=C(S2)C3=CC=NC=C3
  35   37    0    0    0
SMALL
USER_CHARGES
NO_NAME
@<TRIPOS>ATOM
    1 O1        0.0022    -0.0039    -0.0072 O.2    1 <0>      -0.5000
    2 C2       -0.0144     1.2118     0.0074 C.2    1 <0>       0.7000
    3 N3        1.1435     1.9015     0.0074 N.am   1 <0>      -0.6300
    4 C4        2.3553     1.2239    -0.0091 C.2    1 <0>       0.2400
    5 N5        2.4995    -0.0693    -0.0312 N.2    1 <0>      -0.2600
    6 N6        3.6755    -0.5283    -0.0448 N.2    1 <0>      -0.2000
    7 C7        4.6402     0.3500    -0.0351 C.2    1 <0>       0.0300
    8 C8        6.0881     0.0549    -0.0480 C.ar   1 <0>       0.0200
    9 C9        7.0333     1.0878    -0.0303 C.ar   1 <0>      -0.1500
   10 C10       8.3744     0.7670    -0.0433 C.ar   1 <0>       0.1100
   11 N11       8.7699    -0.4916    -0.0720 N.ar   1 <0>      -0.4700
   12 C12       7.9130    -1.4950    -0.0895 C.ar   1 <0>       0.1100
   13 C13       6.5533    -1.2655    -0.0725 C.ar   1 <0>      -0.1300
   14 S14       3.9051     1.9532    -0.0113 S.3    1 <0>       0.1600
   15 N15      -1.1906     1.8696     0.0179 N.am   1 <0>      -0.6700
   16 C16      -2.3921     1.1575    -0.0860 C.ar   1 <0>       0.1500
   17 C17      -2.5119    -0.0934     0.5039 C.ar   1 <0>      -0.0600
   18 C18      -3.6978    -0.7942     0.4002 C.ar   1 <0>      -0.1300
   19 C19      -4.7664    -0.2499    -0.2918 C.ar   1 <0>       0.1400
   20 F20      -5.9254    -0.9368    -0.3920 F      1 <0>      -0.1200
   21 C21      -4.6489     0.9979    -0.8810 C.ar   1 <0>      -0.2000
   22 C22      -5.8136     1.5879    -1.6336 C.3    1 <0>       0.5200
   23 F23      -5.4568     2.8446    -2.1343 F      1 <0>      -0.1700
   24 F24      -6.1588     0.7440    -2.6946 F      1 <0>      -0.1700
   25 F25      -6.9063     1.7229    -0.7705 F      1 <0>      -0.1700
   26 C26      -3.4671     1.7043    -0.7744 C.ar   1 <0>      -0.0700
   27 H27       1.1303     2.8714     0.0191 H      1 <0>       0.4300
   28 H28       6.7168     2.1202    -0.0072 H      1 <0>       0.1400
   29 H29       9.1111     1.5566    -0.0302 H      1 <0>       0.1700
   30 H30       8.2816    -2.5099    -0.1129 H      1 <0>       0.1700
   31 H31       5.8577    -2.0916    -0.0870 H      1 <0>       0.1500
   32 H32      -1.2050     2.8362     0.0974 H      1 <0>       0.4200
   33 H33      -1.6784    -0.5186     1.0432 H      1 <0>       0.1600
   34 H34      -3.7915    -1.7674     0.8590 H      1 <0>       0.1600
   35 H35      -3.3758     2.6774    -1.2340 H      1 <0>       0.1500
@<TRIPOS>BOND
   1    1    2 2
   2    2    3 am
   3    2   15 am
   4    3    4 1
   5    3   27 1
   6    4   14 1
   7    4    5 2
   8    5    6 1
   9    6    7 2
  10    7    8 1
  11    7   14 1
  12    8   13 ar
  13    8    9 ar
  14    9   10 ar
  15    9   28 1
  16   10   11 ar
  17   10   29 1
  18   11   12 ar
  19   12   13 ar
  20   12   30 1
  21   13   31 1
  22   15   16 1
  23   15   32 1
  24   16   26 ar
  25   16   17 ar
  26   17   18 ar
  27   17   33 1
  28   18   19 ar
  29   18   34 1
  30   19   20 1
  31   19   21 ar
  32   21   22 1
  33   21   26 ar
  34   22   23 1
  35   22   24 1
  36   22   25 1
  37   26   35 1


@<TRIPOS>MOLECULE
O=C(C1=CC(OC)=C(NC2=NC=C3C(N(C4=C(C(N3C)=O)C=CC=C4)C)=N2)C=C1)N5CCC(CC5)N6CCN(CC6)C
81    86    1     0     0
SMALL
USER_CHARGES
@<TRIPOS>ATOM
1      C1     -0.3741    1.3817   -0.4352 C.3      1 ZINC000084605049    0.0300
2      O2     -0.2038   -0.0344   -0.3476 O.3      1 ZINC000084605049   -0.3200
3      C3      0.5571   -0.6253   -1.3076 C.ar     1 ZINC000084605049    0.0900
4      C4      1.1288    0.1401   -2.3036 C.ar     1 ZINC000084605049   -0.1300
5      C5      1.9106   -0.4705   -3.2891 C.ar     1 ZINC000084605049   -0.1300
6      C6      2.5241    0.3440   -4.3556 C.2      1 ZINC000084605049    0.5700
7      O7      2.8839    1.4815   -4.1210 O.2      1 ZINC000084605049   -0.5200
8      N8      2.6857   -0.1730   -5.5897 N.am     1 ZINC000084605049   -0.6200
9      C9      2.1425   -1.4966   -5.9240 C.3      1 ZINC000084605049    0.0900
10     C10     1.2676   -1.3689   -7.1750 C.3      1 ZINC000084605049   -0.1600
11     C11     2.0814   -0.7216   -8.2979 C.3      1 ZINC000084605049    0.0300
12     N12     1.2557   -0.6279   -9.5093 N.4      1 ZINC000084605049   -0.3800
13     H13     0.4402   -0.0656   -9.3175 H        1 ZINC000084605049    0.4200
14     C14     0.8361   -1.9740   -9.9208 C.3      1 ZINC000084605049   -0.0100
15     C15    -0.0395   -1.8754  -11.1719 C.3      1 ZINC000084605049    0.0300
16     N16     0.7226   -1.2299  -12.2502 N.3      1 ZINC000084605049   -0.5400
17     C17    -0.0662   -1.1676  -13.4879 C.3      1 ZINC000084605049    0.0200
18     C18     1.1708    0.1093  -11.8432 C.3      1 ZINC000084605049    0.0300
19     C19     2.0366   -0.0060  -10.5868 C.3      1 ZINC000084605049   -0.0100
20     C20     2.5194    0.6808   -7.8696 C.3      1 ZINC000084605049   -0.1600
21     C21     3.4032    0.5790   -6.6282 C.3      1 ZINC000084605049    0.1200
22     C22     2.1102   -1.8530   -3.2621 C.ar     1 ZINC000084605049   -0.1100
23     C23     1.5371   -2.6127   -2.2661 C.ar     1 ZINC000084605049   -0.1000
24     C24     0.7650   -2.0059   -1.2825 C.ar     1 ZINC000084605049    0.1800
25     N25     0.1867   -2.7786   -0.2762 N.pl3    1 ZINC000084605049   -0.6200
26     C26    -0.0776   -4.1221   -0.4987 C.ar     1 ZINC000084605049    0.5700
27     N27     0.1210   -4.6272   -1.7056 N.ar     1 ZINC000084605049   -0.5400
28     C28    -0.1362   -5.9018   -1.9638 C.ar     1 ZINC000084605049    0.1800
29     C29    -0.6116   -6.7168   -0.9459 C.ar     1 ZINC000084605049   -0.0100
30     C30    -0.7810   -6.1575    0.3226 C.ar     1 ZINC000084605049    0.4600
31     N31    -0.5175   -4.8686    0.5044 N.ar     1 ZINC000084605049   -0.5500
32     N32    -1.1671   -6.9435    1.3995 N.pl3    1 ZINC000084605049   -0.6000
33     C33    -2.4144   -6.6625    2.1147 C.3      1 ZINC000084605049    0.1100
34     C34    -0.3532   -8.0022    1.7900 C.ar     1 ZINC000084605049    0.2000
35     C35     0.1860   -8.0239    3.0692 C.ar     1 ZINC000084605049   -0.1300
36     C36     1.0208   -9.0557    3.4507 C.ar     1 ZINC000084605049   -0.0700
37     C37     1.3277  -10.0715    2.5606 C.ar     1 ZINC000084605049   -0.1300
38     C38     0.7908  -10.0714    1.2914 C.ar     1 ZINC000084605049   -0.0400
39     C39    -0.0702   -9.0429    0.8958 C.ar     1 ZINC000084605049   -0.1500
40     C40    -0.6993   -9.0899   -0.4296 C.2      1 ZINC000084605049    0.5700
41     O41    -1.0397  -10.1811   -0.8440 O.2      1 ZINC000084605049   -0.5200
42     N42    -0.9290   -8.0472   -1.2134 N.am     1 ZINC000084605049   -0.5300
43     C43    -1.5844   -8.3210   -2.4947 C.3      1 ZINC000084605049    0.0600
44     H44     0.5993    1.8689   -0.3785 H        1 ZINC000084605049    0.0600
45     H45    -0.8512    1.6323   -1.3827 H        1 ZINC000084605049    0.0600
46     H46    -1.0003    1.7240    0.3887 H        1 ZINC000084605049    0.1100
47     H47     0.9724    1.2086   -2.3220 H        1 ZINC000084605049    0.1400
48     H48     2.9614   -2.1888   -6.1198 H        1 ZINC000084605049    0.0900
49     H49     1.5406   -1.8650   -5.0932 H        1 ZINC000084605049    0.1300
50     H50     0.9362   -2.3585   -7.4897 H        1 ZINC000084605049    0.1000
51     H51     0.3999   -0.7485   -6.9504 H        1 ZINC000084605049    0.0900
52     H52     2.9622   -1.3295   -8.5049 H        1 ZINC000084605049    0.1400
53     H53     1.7167   -2.5778  -10.1404 H        1 ZINC000084605049    0.1400
54     H54     0.2680   -2.4396   -9.1155 H        1 ZINC000084605049    0.1400
55     H55    -0.3388   -2.8753  -11.4861 H        1 ZINC000084605049    0.1200
56     H56    -0.9270   -1.2830  -10.9489 H        1 ZINC000084605049    0.0600
57     H57    -0.9756   -0.5935  -13.3107 H        1 ZINC000084605049    0.0400
58     H58     0.5214   -0.6856  -14.2693 H        1 ZINC000084605049    0.0800
59     H59    -0.3295   -2.1776  -13.8022 H        1 ZINC000084605049    0.0800
60     H60     1.7546    0.5574  -12.6473 H        1 ZINC000084605049    0.1200
61     H61     0.3033    0.7343  -11.6313 H        1 ZINC000084605049    0.0600
62     H62     2.3585    0.9876  -10.2749 H        1 ZINC000084605049    0.1400
63     H63     2.9109   -0.6199  -10.8031 H        1 ZINC000084605049    0.1400
64     H64     3.0790    1.1502   -8.6787 H        1 ZINC000084605049    0.1000
65     H65     1.6399    1.2819   -7.6385 H        1 ZINC000084605049    0.0900
66     H66     3.6358    1.5790   -6.2623 H        1 ZINC000084605049    0.1100
67     H67     4.3259    0.0555   -6.8786 H        1 ZINC000084605049    0.0800
68     H68     2.7138   -2.3263   -4.0225 H        1 ZINC000084605049    0.1400
69     H69     1.6920   -3.6814   -2.2468 H        1 ZINC000084605049    0.1700
70     H70    -0.0308   -2.3767    0.5794 H        1 ZINC000084605049    0.4300
71     H71     0.0219   -6.3012   -2.9547 H        1 ZINC000084605049    0.1800
72     H72    -2.9068   -5.8018    1.6621 H        1 ZINC000084605049    0.0800
73     H73    -3.0713   -7.5302    2.0542 H        1 ZINC000084605049    0.0600
74     H74    -2.1932   -6.4465    3.1599 H        1 ZINC000084605049    0.0600
75     H75    -0.0480   -7.2333    3.7668 H        1 ZINC000084605049    0.1300
76     H76     1.4365   -9.0704    4.4474 H        1 ZINC000084605049    0.1400
77     H77     1.9917  -10.8678    2.8628 H        1 ZINC000084605049    0.1400
78     H78     1.0351  -10.8660    0.6019 H        1 ZINC000084605049    0.1400
79     H79    -1.7780   -9.3900   -2.5827 H        1 ZINC000084605049    0.1100
80     H80    -2.5269   -7.7757   -2.5446 H        1 ZINC000084605049    0.0700
81     H81    -0.9359   -8.0008   -3.3103 H        1 ZINC000084605049    0.0700
@<TRIPOS>BOND
1     1     2     1
2     1     44    1
3     1     45    1
4     1     46    1
5     2     3     1
6     3     24    ar
7     3     4     ar
8     4     5     ar
9     4     47    1
10    5     6     1
11    5     22    ar
12    6     7     2
13    6     8     am
14    8     21    1
15    8     9     1
16    9     10    1
17    9     48    1
18    9     49    1
19    10    11    1
20    10    50    1
21    10    51    1
22    11    12    1
23    11    20    1
24    11    52    1
25    12    13    1
26    12    19    1
27    12    14    1
28    14    15    1
29    14    53    1
30    14    54    1
31    15    16    1
32    15    55    1
33    15    56    1
34    16    17    1
35    16    18    1
36    17    57    1
37    17    58    1
38    17    59    1
39    18    19    1
40    18    60    1
41    18    61    1
42    19    62    1
43    19    63    1
44    20    21    1
45    20    64    1
46    20    65    1
47    21    66    1
48    21    67    1
49    22    23    ar
50    22    68    1
51    23    24    ar
52    23    69    1
53    24    25    1
54    25    26    1
55    25    70    1
56    26    31    ar
57    26    27    ar
58    27    28    ar
59    28    29    ar
60    28    71    1
61    29    42    1
62    29    30    ar
63    30    31    ar
64    30    32    1
65    32    33    1
66    32    34    1
67    33    72    1
68    33    73    1
69    33    74    1
70    34    39    ar
71    34    35    ar
72    35    36    ar
73    35    75    1
74    36    37    ar
75    36    76    1
76    37    38    ar
77    37    77    1
78    38    39    ar
79    38    78    1
80    39    40    1
81    40    41    2
82    40    42    am
83    42    43    1
84    43    79    1
85    43    80    1
86    43    81    1
@<TRIPOS>SUBSTRUCTURE
1   ZINC000084605049 1     RESIDUE    1   A     ZIN   1


@<TRIPOS>MOLECULE
OC1=CC=C(OC2=C(I)C=C(C[C@H](N)CO)C=C2I)C=C1
37    38    1     0     0
SMALL
USER_CHARGES
@<TRIPOS>ATOM
1      N1     -0.0116    1.0048    0.0076 N.4      1 ZINC000095605533   -0.6400
2      H2      0.0021   -0.0041    0.0020 H        1 ZINC000095605533    0.4300
3      H3      0.9350    1.3541    0.0004 H        1 ZINC000095605533    0.4300
4      H4     -0.4996    1.3391   -0.8099 H        1 ZINC000095605533    0.4500
5      C5     -0.6992    1.4786    1.2162 C.3      1 ZINC000095605533    0.0400
6      H6     -1.7218    1.1013    1.2239 H        1 ZINC000095605533    0.1500
7      C7     -0.7199    3.0084    1.2246 C.3      1 ZINC000095605533    0.0500
8      O8     -1.5096    3.4801    0.1310 O.3      1 ZINC000095605533   -0.5800
9      C9      0.0408    0.9717    2.4557 C.3      1 ZINC000095605533   -0.1000
10     C10    -0.0446   -0.5318    2.5119 C.ar     1 ZINC000095605533   -0.1200
11     C11    -1.0982   -1.1390    3.1699 C.ar     1 ZINC000095605533   -0.0400
12     C12    -1.1793   -2.5176    3.2226 C.ar     1 ZINC000095605533   -0.1100
13     I13    -2.7766   -3.4366    4.2192 I        1 ZINC000095605533    0.0200
14     C14    -0.2018   -3.2927    2.6144 C.ar     1 ZINC000095605533    0.1700
15     O15    -0.2792   -4.6485    2.6643 O.3      1 ZINC000095605533   -0.2500
16     C16    -0.9506   -5.2866    1.6690 C.ar     1 ZINC000095605533    0.1100
17     C17    -1.5260   -4.5548    0.6404 C.ar     1 ZINC000095605533   -0.1800
18     C18    -2.2076   -5.2032   -0.3709 C.ar     1 ZINC000095605533   -0.1100
19     C19    -2.3166   -6.5859   -0.3582 C.ar     1 ZINC000095605533    0.0900
20     O20    -2.9876   -7.2241   -1.3540 O.3      1 ZINC000095605533   -0.4900
21     C21    -1.7409   -7.3177    0.6699 C.ar     1 ZINC000095605533   -0.1000
22     C22    -1.0552   -6.6699    1.6788 C.ar     1 ZINC000095605533   -0.1100
23     C23     0.8547   -2.6805    1.9547 C.ar     1 ZINC000095605533   -0.1100
24     I24     2.3330   -3.8457    1.0349 I        1 ZINC000095605533    0.0200
25     C25     0.9279   -1.3015    1.9006 C.ar     1 ZINC000095605533   -0.0800
26     H26    -1.1502    3.3608    2.1620 H        1 ZINC000095605533    0.1000
27     H27     0.2979    3.3861    1.1273 H        1 ZINC000095605533    0.0800
28     H28    -1.5670    4.4437    0.0742 H        1 ZINC000095605533    0.4100
29     H29     1.0866    1.2746    2.4037 H        1 ZINC000095605533    0.1100
30     H30    -0.4161    1.3953    3.3501 H        1 ZINC000095605533    0.1300
31     H31    -1.8584   -0.5353    3.6433 H        1 ZINC000095605533    0.1500
32     H32    -1.4414   -3.4782    0.6307 H        1 ZINC000095605533    0.1200
33     H33    -2.6559   -4.6335   -1.1715 H        1 ZINC000095605533    0.1300
34     H34    -2.4327   -7.4720   -2.1061 H        1 ZINC000095605533    0.3900
35     H35    -1.8259   -8.3943    0.6796 H        1 ZINC000095605533    0.1400
36     H36    -0.6070   -7.2397    2.4793 H        1 ZINC000095605533    0.1400
37     H37     1.7498   -0.8245    1.3873 H        1 ZINC000095605533    0.1400
@<TRIPOS>BOND
1     1     2     1
2     1     3     1
3     1     4     1
4     1     5     1
5     5     6     1
6     5     7     1
7     5     9     1
8     7     8     1
9     7     26    1
10    7     27    1
11    8     28    1
12    9     10    1
13    9     29    1
14    9     30    1
15    10    25    ar
16    10    11    ar
17    11    12    ar
18    11    31    1
19    12    13    1
20    12    14    ar
21    14    15    1
22    14    23    ar
23    15    16    1
24    16    22    ar
25    16    17    ar
26    17    18    ar
27    17    32    1
28    18    19    ar
29    18    33    1
30    19    20    1
31    19    21    ar
32    20    34    1
33    21    22    ar
34    21    35    1
35    22    36    1
36    23    24    1
37    23    25    ar
38    25    37    1
@<TRIPOS>SUBSTRUCTURE
1   ZINC000095605533 1     RESIDUE    1   A     ZIN   1


@<TRIPOS>MOLECULE
C(=O)(P(=O)(O)O)P(=O)(O)O
  10    9    0    0    0
SMALL
USER_CHARGES
NO_NAME
@<TRIPOS>ATOM
    1 O1        0.0021    -0.0041     0.0020 O.2    1 <0>      -0.5000
    2 C2       -0.0143     1.2034     0.0087 C.2    1 <0>      -0.8000
    3 P3        1.5442     2.1317    -0.0012 P.3    1 <0>       2.1900
    4 O4        1.6271     3.0266     1.2820 O.co2  1 <0>      -1.1700
    5 O5        2.7486     1.1299    -0.0181 O.co2  1 <0>      -1.2000
    6 O6        1.6027     3.0403    -1.2762 O.co2  1 <0>      -1.1700
    7 P7       -1.5974     2.0890     0.0210 P.3    1 <0>       2.1900
    8 O8       -1.6987     2.9954    -1.2528 O.co2  1 <0>      -1.1700
    9 O9       -2.7743     1.0548     0.0209 O.co2  1 <0>      -1.2000
   10 O10      -1.6865     2.9815     1.3055 O.co2  1 <0>      -1.1700
@<TRIPOS>BOND
   1    1    2 2
   2    2    3 1
   3    2    7 1
   4    3    4 ar
   5    3    5 ar
   6    3    6 ar
   7    7    8 ar
   8    7    9 ar
   9    7   10 ar


@<TRIPOS>MOLECULE
CC1=CC=C(C=C1)NC2=CC(=O)C3=C(C2=O)N=C(S3)C
32    34    1     0     0
SMALL
USER_CHARGES
@<TRIPOS>ATOM
1      C1      4.0164   -1.8566    0.5818 C.3      1 ZINC000005930916   -0.0800
2      C2      2.6025   -2.2975    0.8602 C.2      1 ZINC000005930916    0.0600
3      N3      1.9782   -3.2030    0.1974 N.2      1 ZINC000005930916   -0.4400
4      C4      0.7284   -3.4915    0.5554 C.2      1 ZINC000005930916    0.0700
5      C5      0.3000   -2.7322    1.6265 C.2      1 ZINC000005930916   -0.2900
6      S6      1.6183   -1.6651    2.1038 S.3      1 ZINC000005930916    0.2600
7      C7     -1.0609   -2.9064    2.1709 C.2      1 ZINC000005930916    0.4600
8      O8     -1.4261   -2.2306    3.1150 O.2      1 ZINC000005930916   -0.4200
9      C9     -1.9731   -3.8863    1.5819 C.2      1 ZINC000005930916   -0.1800
10     C10    -1.5743   -4.6408    0.5320 C.2      1 ZINC000005930916    0.1500
11     N11    -2.4396   -5.5611   -0.0166 N.pl3    1 ZINC000005930916   -0.6700
12     C12    -2.0560   -6.8974   -0.1309 C.ar     1 ZINC000005930916    0.1800
13     C13    -0.8757   -7.3363    0.4577 C.ar     1 ZINC000005930916   -0.1600
14     C14    -0.4995   -8.6598    0.3428 C.ar     1 ZINC000005930916   -0.0800
15     C15    -1.2952   -9.5484   -0.3574 C.ar     1 ZINC000005930916   -0.1200
16     C16    -0.8808  -10.9921   -0.4809 C.3      1 ZINC000005930916   -0.1100
17     C17    -2.4705   -9.1155   -0.9441 C.ar     1 ZINC000005930916   -0.0800
18     C18    -2.8560   -7.7947   -0.8290 C.ar     1 ZINC000005930916   -0.1600
19     C19    -0.2128   -4.4838   -0.0316 C.2      1 ZINC000005930916    0.4300
20     O20     0.1354   -5.1656   -0.9739 O.2      1 ZINC000005930916   -0.3700
21     H21     4.3018   -1.0810    1.2924 H        1 ZINC000005930916    0.0900
22     H22     4.6892   -2.7081    0.6838 H        1 ZINC000005930916    0.1000
23     H23     4.0810   -1.4620   -0.4322 H        1 ZINC000005930916    0.1000
24     H24    -2.9672   -4.0081    1.9861 H        1 ZINC000005930916    0.1700
25     H25    -3.3159   -5.2801   -0.3234 H        1 ZINC000005930916    0.4200
26     H26    -0.2535   -6.6429    1.0040 H        1 ZINC000005930916    0.1100
27     H27     0.4174   -9.0015    0.7999 H        1 ZINC000005930916    0.1200
28     H28    -1.2934  -11.5611    0.3522 H        1 ZINC000005930916    0.0700
29     H29    -1.2561  -11.3987   -1.4200 H        1 ZINC000005930916    0.0700
30     H30     0.2070  -11.0605   -0.4643 H        1 ZINC000005930916    0.0600
31     H31    -3.0893   -9.8123   -1.4901 H        1 ZINC000005930916    0.1300
32     H32    -3.7740   -7.4575   -1.2871 H        1 ZINC000005930916    0.1300
@<TRIPOS>BOND
1     1     2     1
2     1     21    1
3     1     22    1
4     1     23    1
5     2     6     1
6     2     3     2
7     3     4     1
8     4     19    1
9     4     5     2
10    5     6     1
11    5     7     1
12    7     8     2
13    7     9     1
14    9     10    2
15    9     24    1
16    10    11    1
17    10    19    1
18    11    12    1
19    11    25    1
20    12    18    ar
21    12    13    ar
22    13    14    ar
23    13    26    1
24    14    15    ar
25    14    27    1
26    15    16    1
27    15    17    ar
28    16    28    1
29    16    29    1
30    16    30    1
31    17    18    ar
32    17    31    1
33    18    32    1
34    19    20    2
@<TRIPOS>SUBSTRUCTURE
1   ZINC000005930916 1     RESIDUE    1   A     ZIN   1


@<TRIPOS>MOLECULE
OC1=CC(C(O)=O)=CC=C1NC([H])=O
  18   18    0    0    0
SMALL
USER_CHARGES
NO_NAME
@<TRIPOS>ATOM
    1 O1        0.1556     0.2445     1.1017 O.2    1 <0>      -0.5700
    2 C2        0.0652     1.3373     0.5835 C.2    1 <0>       0.4600
    3 N3        1.1435     1.8983     0.0013 N.am   1 <0>      -0.6300
    4 C4        2.3848     1.2661     0.0764 C.ar   1 <0>      -0.0600
    5 C5        2.4586    -0.1219     0.0565 C.ar   1 <0>      -0.0800
    6 C6        3.6814    -0.7507     0.1308 C.ar   1 <0>      -0.2100
    7 C7        4.8530     0.0072     0.2261 C.ar   1 <0>      -0.1000
    8 C8        6.1612    -0.6637     0.3051 C.2    1 <0>       0.5200
    9 O9        6.2242    -1.8853     0.2875 O.co2  1 <0>      -0.7100
   10 O10       7.1852     0.0005     0.3884 O.co2  1 <0>      -0.7100
   11 C11       4.7792     1.4046     0.2456 C.ar   1 <0>      -0.2200
   12 C12       3.5510     2.0289     0.1656 C.ar   1 <0>       0.2500
   13 O13       3.4757     3.3865     0.1839 O.3    1 <0>      -0.7700
   14 H14      -0.8805     1.8589     0.5848 H      1 <0>       0.1100
   15 H15       1.0565     2.7417    -0.4699 H      1 <0>       0.4000
   16 H16       1.5547    -0.7084    -0.0170 H      1 <0>       0.1000
   17 H17       3.7358    -1.8292     0.1159 H      1 <0>       0.1000
   18 H18       5.6817     1.9932     0.3191 H      1 <0>       0.1000
@<TRIPOS>BOND
   1    1    2 2
   2    2    3 am
   3    2   14 1
   4    3    4 1
   5    3   15 1
   6    4   12 ar
   7    4    5 ar
   8    5    6 ar
   9    5   16 1
  10    6    7 ar
  11    6   17 1
  12    7    8 1
  13    7   11 ar
  14    8    9 ar
  15    8   10 ar
  16   11   12 ar
  17   11   18 1
  18   12   13 1


@<TRIPOS>MOLECULE
CC1=CC=C(C2=CN3C=C(C)C=CC3=N2)C=C1
  31   33    0    0    0
SMALL
NO_CHARGES
@<TRIPOS>ATOM
   1 C1            -0.0184     1.5028     0.0103 C.3     
   2 C2             0.0021    -0.0041     0.0020 C.ar    
   3 C3             0.0057    -0.6865    -1.2011 C.ar    
   4 C4             0.0239    -2.0665    -1.2146 C.ar    
   5 C5             0.0392    -2.7722    -0.0132 C.ar    
   6 C6             0.0593    -4.2561    -0.0214 C.2     
   7 C7             0.0699    -5.0599     1.0783 C.2     
   8 N8             0.0876    -6.3514     0.6315 N.pl3   
   9 C9             0.1041    -7.5506     1.2840 C.2     
  10 C10            0.1204    -8.7094     0.5926 C.2     
  11 C11            0.1385   -10.0230     1.3308 C.3     
  12 C12            0.1201    -8.6967    -0.8122 C.2     
  13 C13            0.1037    -7.5094    -1.4753 C.2     
  14 C14            0.0873    -6.3067    -0.7392 C.2     
  15 N15            0.0643    -5.0363    -1.1138 N.2     
  16 C16            0.0359    -2.0796     1.1958 C.ar    
  17 C17            0.0229    -0.6995     1.1975 C.ar    
  18 H18            1.0042     1.8801     0.0026 H       
  19 H19           -0.5455     1.8639    -0.8728 H       
  20 H20           -0.5286     1.8543     0.9071 H       
  21 H21           -0.0062    -0.1385    -2.1317 H       
  22 H22            0.0260    -2.5984    -2.1545 H       
  23 H23            0.0653    -4.7374     2.1091 H       
  24 H24            0.1045    -7.5721     2.3638 H       
  25 H25           -0.8847   -10.3541     1.5085 H       
  26 H26            0.6629   -10.7685     0.7330 H       
  27 H27            0.6504    -9.8967     2.2848 H       
  28 H28            0.1332    -9.6255    -1.3630 H       
  29 H29            0.1037    -7.4878    -2.5551 H       
  30 H30            0.0474    -2.6217     2.1299 H       
  31 H31            0.0203    -0.1616     2.1341 H       
@<TRIPOS>BOND
   1    1    2 1
   2    1   18 1
   3    1   19 1
   4    1   20 1
   5    2   17 ar
   6    2    3 ar
   7    3    4 ar
   8    3   21 1
   9    4    5 ar
  10    4   22 1
  11    5    6 1
  12    5   16 ar
  13    6   15 1
  14    6    7 2
  15    7    8 1
  16    7   23 1
  17    8   14 1
  18    8    9 1
  19    9   10 2
  20    9   24 1
  21   10   11 1
  22   10   12 1
  23   11   25 1
  24   11   26 1
  25   11   27 1
  26   12   13 2
  27   12   28 1
  28   13   14 1
  29   13   29 1
  30   14   15 2
  31   16   17 ar
  32   16   30 1
  33   17   31 1


@<TRIPOS>MOLECULE
O=C1OC2=CC(C)=CC(O[C@H](C)C(NCC(NCC([O-])=O)=O)=O)=C2C3=C1CCC3
50    52    1     0     0
SMALL
USER_CHARGES
@<TRIPOS>ATOM
1      C1      0.8531    1.4810   -0.0946 C.3      1 ZINC000002140391   -0.1200
2      C2      0.6442   -0.0113   -0.0698 C.ar     1 ZINC000002140391    0.0100
3      C3      0.4304   -0.6922   -1.2566 C.ar     1 ZINC000002140391   -0.2400
4      C4      0.2355   -2.0621   -1.2500 C.ar     1 ZINC000002140391    0.2000
5      O5      0.0265   -2.7292   -2.4131 O.3      1 ZINC000002140391   -0.2700
6      C6     -0.0989   -1.9418   -3.5990 C.3      1 ZINC000002140391    0.0700
7      H7     -0.6074   -1.0071   -3.3625 H        1 ZINC000002140391    0.1100
8      C8      1.2922   -1.6380   -4.1589 C.3      1 ZINC000002140391   -0.1800
9      C9     -0.8982   -2.7028   -4.6251 C.2      1 ZINC000002140391    0.5200
10     O10    -1.3191   -3.8105   -4.3664 O.2      1 ZINC000002140391   -0.5200
11     N11    -1.1454   -2.1526   -5.8304 N.am     1 ZINC000002140391   -0.7100
12     C12    -1.9224   -2.8924   -6.8279 C.3      1 ZINC000002140391    0.1000
13     C13    -2.0546   -2.0621   -8.0785 C.2      1 ZINC000002140391    0.5000
14     O14    -1.5495   -0.9607   -8.1314 O.2      1 ZINC000002140391   -0.5600
15     N15    -2.7342   -2.5434   -9.1383 N.am     1 ZINC000002140391   -0.6900
16     C16    -2.8627   -1.7361  -10.3540 C.3      1 ZINC000002140391    0.0500
17     C17    -3.6620   -2.4972  -11.3802 C.2      1 ZINC000002140391    0.4900
18     O18    -4.0851   -3.6107  -11.1200 O.co2    1 ZINC000002140391   -0.6900
19     O19    -3.8856   -1.9994  -12.4705 O.co2    1 ZINC000002140391   -0.6900
20     C20     0.2564   -2.7561   -0.0302 C.ar     1 ZINC000002140391   -0.1700
21     C21     0.0507   -4.2048    0.0174 C.2      1 ZINC000002140391    0.0400
22     C22     0.0833   -4.8218    1.2253 C.2      1 ZINC000002140391   -0.2600
23     C23    -0.1491   -6.3076    1.0542 C.3      1 ZINC000002140391   -0.0500
24     C24    -0.7562   -6.4603   -0.3573 C.3      1 ZINC000002140391   -0.1200
25     C25    -0.2066   -5.2110   -1.0802 C.3      1 ZINC000002140391   -0.0900
26     C26     0.3115   -4.0565    2.3913 C.2      1 ZINC000002140391    0.5300
27     O27     0.3411   -4.6181    3.4716 O.2      1 ZINC000002140391   -0.4700
28     O28     0.4969   -2.7292    2.3413 O.3      1 ZINC000002140391   -0.2600
29     C29     0.4765   -2.0573    1.1702 C.ar     1 ZINC000002140391    0.1900
30     C30     0.6737   -0.6845    1.1354 C.ar     1 ZINC000002140391   -0.1700
31     H31     1.9156    1.6973   -0.2055 H        1 ZINC000002140391    0.0800
32     H32     0.3053    1.9107   -0.9333 H        1 ZINC000002140391    0.0800
33     H33     0.4893    1.9143    0.8371 H        1 ZINC000002140391    0.0800
34     H34     0.4155   -0.1515   -2.1915 H        1 ZINC000002140391    0.1400
35     H35     1.8703   -1.0875   -3.4167 H        1 ZINC000002140391    0.0800
36     H36     1.8007   -2.5727   -4.3954 H        1 ZINC000002140391    0.0800
37     H37     1.1966   -1.0374   -5.0635 H        1 ZINC000002140391    0.0900
38     H38    -0.8088   -1.2667   -6.0373 H        1 ZINC000002140391    0.4100
39     H39    -1.4139   -3.8271   -7.0644 H        1 ZINC000002140391    0.1000
40     H40    -2.9134   -3.1089   -6.4290 H        1 ZINC000002140391    0.1000
41     H41    -3.1381   -3.4242   -9.0960 H        1 ZINC000002140391    0.4100
42     H42    -3.3712   -0.8015  -10.1175 H        1 ZINC000002140391    0.0700
43     H43    -1.8716   -1.5197  -10.7529 H        1 ZINC000002140391    0.0700
44     H44     0.7949   -6.8484    1.1207 H        1 ZINC000002140391    0.0800
45     H45    -0.8479   -6.6705    1.8080 H        1 ZINC000002140391    0.0800
46     H46    -0.4035   -7.3738   -0.8360 H        1 ZINC000002140391    0.0900
47     H47    -1.8453   -6.4391   -0.3171 H        1 ZINC000002140391    0.0800
48     H48    -0.9449   -4.8246   -1.7828 H        1 ZINC000002140391    0.1000
49     H49     0.7215   -5.4513   -1.5989 H        1 ZINC000002140391    0.1000
50     H50     0.8457   -0.1410    2.0526 H        1 ZINC000002140391    0.1500
@<TRIPOS>BOND
1     1     2     1
2     1     31    1
3     1     32    1
4     1     33    1
5     2     30    ar
6     2     3     ar
7     3     4     ar
8     3     34    1
9     4     5     1
10    4     20    ar
11    5     6     1
12    6     7     1
13    6     8     1
14    6     9     1
15    8     35    1
16    8     36    1
17    8     37    1
18    9     10    2
19    9     11    am
20    11    12    1
21    11    38    1
22    12    13    1
23    12    39    1
24    12    40    1
25    13    14    2
26    13    15    am
27    15    16    1
28    15    41    1
29    16    17    1
30    16    42    1
31    16    43    1
32    17    18    ar
33    17    19    ar
34    20    29    ar
35    20    21    1
36    21    25    1
37    21    22    2
38    22    23    1
39    22    26    1
40    23    24    1
41    23    44    1
42    23    45    1
43    24    25    1
44    24    46    1
45    24    47    1
46    25    48    1
47    25    49    1
48    26    27    2
49    26    28    1
50    28    29    1
51    29    30    ar
52    30    50    1
@<TRIPOS>SUBSTRUCTURE
1   ZINC000002140391 1     RESIDUE    1   A     ZIN   1


@<TRIPOS>MOLECULE
O=C(C1=NNC(C(C)C)=C1)N2CC[C@H](NC(C3CC3)=O)C2
43    45    1     0     0
SMALL
USER_CHARGES
@<TRIPOS>ATOM
1      C1      0.2224    1.2570    0.2642 C.3      1 ZINC000521836460   -0.1400
2      C2      0.0761   -0.2429   -0.0002 C.3      1 ZINC000521836460   -0.0100
3      C3      0.8109   -1.0268    1.0890 C.3      1 ZINC000521836460   -0.1500
4      C4     -1.3842   -0.6149    0.0116 C.2      1 ZINC000521836460    0.0400
5      N5     -2.1635   -0.7104   -1.0354 N.2      1 ZINC000521836460   -0.2700
6      N6     -3.3546   -1.0466   -0.6916 N.pl3    1 ZINC000521836460   -0.3800
7      C7     -3.4159   -1.1948    0.6649 C.2      1 ZINC000521836460   -0.0400
8      C8     -4.5953   -1.5728    1.4597 C.2      1 ZINC000521836460    0.6100
9      O9     -4.5418   -1.5528    2.6747 O.2      1 ZINC000521836460   -0.5100
10     N10    -5.7348   -1.9412    0.8413 N.am     1 ZINC000521836460   -0.6200
11     C11    -5.9026   -2.1268   -0.6115 C.3      1 ZINC000521836460    0.0800
12     C12    -7.0981   -3.1020   -0.7512 C.3      1 ZINC000521836460   -0.1400
13     C13    -8.0200   -2.6322    0.4049 C.3      1 ZINC000521836460    0.1400
14     H14    -8.6210   -1.7770    0.0957 H        1 ZINC000521836460    0.1100
15     N15    -8.8781   -3.7283    0.8617 N.am     1 ZINC000521836460   -0.7200
16     C16   -10.0542   -3.4582    1.4618 C.2      1 ZINC000521836460    0.5500
17     O17   -10.4023   -2.3077    1.6237 O.2      1 ZINC000521836460   -0.5300
18     C18   -10.9369   -4.5857    1.9316 C.3      1 ZINC000521836460   -0.2000
19     C19   -11.1046   -4.7695    3.4413 C.3      1 ZINC000521836460   -0.1500
20     C20   -12.2593   -4.2139    2.6054 C.3      1 ZINC000521836460   -0.1500
21     C21    -7.0146   -2.2306    1.5045 C.3      1 ZINC000521836460    0.1000
22     C22    -2.1448   -0.9249    1.1414 C.2      1 ZINC000521836460   -0.1400
23     H23     1.2786    1.5261    0.2557 H        1 ZINC000521836460    0.0600
24     H24    -0.3011    1.8155   -0.5117 H        1 ZINC000521836460    0.0600
25     H25    -0.2061    1.4979    1.2371 H        1 ZINC000521836460    0.0600
26     H26     0.5045   -0.4838   -0.9731 H        1 ZINC000521836460    0.0900
27     H27     0.3825   -0.7859    2.0619 H        1 ZINC000521836460    0.0600
28     H28     0.7067   -2.0953    0.9006 H        1 ZINC000521836460    0.0600
29     H29     1.8671   -0.7577    1.0804 H        1 ZINC000521836460    0.0600
30     H30    -4.0972   -1.1755   -1.3022 H        1 ZINC000521836460    0.4400
31     H31    -6.1311   -1.1753   -1.0916 H        1 ZINC000521836460    0.0800
32     H32    -5.0032   -2.5648   -1.0444 H        1 ZINC000521836460    0.0800
33     H33    -7.5897   -2.9816   -1.7165 H        1 ZINC000521836460    0.1000
34     H34    -6.7800   -4.1339   -0.6025 H        1 ZINC000521836460    0.0900
35     H35    -8.5997   -4.6484    0.7322 H        1 ZINC000521836460    0.4100
36     H36   -10.9218   -5.4834    1.3136 H        1 ZINC000521836460    0.1300
37     H37   -11.1997   -5.7884    3.8167 H        1 ZINC000521836460    0.1100
38     H38   -10.5765   -4.0750    4.0946 H        1 ZINC000521836460    0.1000
39     H39   -12.4909   -3.1538    2.7088 H        1 ZINC000521836460    0.1100
40     H40   -13.1142   -4.8672    2.4308 H        1 ZINC000521836460    0.1100
41     H41    -6.8936   -3.0497    2.2133 H        1 ZINC000521836460    0.0800
42     H42    -7.3681   -1.3388    2.0222 H        1 ZINC000521836460    0.0800
43     H43    -1.8131   -0.9435    2.1691 H        1 ZINC000521836460    0.1700
@<TRIPOS>BOND
1     1     2     1
2     1     23    1
3     1     24    1
4     1     25    1
5     2     3     1
6     2     4     1
7     2     26    1
8     3     27    1
9     3     28    1
10    3     29    1
11    4     22    1
12    4     5     2
13    5     6     1
14    6     7     1
15    6     30    1
16    7     8     1
17    7     22    2
18    8     9     2
19    8     10    am
20    10    21    1
21    10    11    1
22    11    12    1
23    11    31    1
24    11    32    1
25    12    13    1
26    12    33    1
27    12    34    1
28    13    14    1
29    13    15    1
30    13    21    1
31    15    16    am
32    15    35    1
33    16    17    2
34    16    18    1
35    18    20    1
36    18    19    1
37    18    36    1
38    19    20    1
39    19    37    1
40    19    38    1
41    20    39    1
42    20    40    1
43    21    41    1
44    21    42    1
45    22    43    1
@<TRIPOS>SUBSTRUCTURE
1   ZINC000521836460 1     RESIDUE    1   A     ZIN   1


@<TRIPOS>MOLECULE
O=C(C1=NNC(C(C)C)=C1)N2CC[C@@H](NC(C3CC3)=O)C2
43    45    1     0     0
SMALL
USER_CHARGES
@<TRIPOS>ATOM
1      C1      0.2224    1.2570    0.2642 C.3      1 ZINC000521836460   -0.1400
2      C2      0.0761   -0.2429   -0.0002 C.3      1 ZINC000521836460   -0.0100
3      C3      0.8109   -1.0268    1.0890 C.3      1 ZINC000521836460   -0.1500
4      C4     -1.3842   -0.6149    0.0116 C.2      1 ZINC000521836460    0.0400
5      N5     -2.1635   -0.7104   -1.0354 N.2      1 ZINC000521836460   -0.2700
6      N6     -3.3546   -1.0466   -0.6916 N.pl3    1 ZINC000521836460   -0.3800
7      C7     -3.4159   -1.1948    0.6649 C.2      1 ZINC000521836460   -0.0400
8      C8     -4.5953   -1.5728    1.4597 C.2      1 ZINC000521836460    0.6100
9      O9     -4.5418   -1.5528    2.6747 O.2      1 ZINC000521836460   -0.5100
10     N10    -5.7348   -1.9412    0.8413 N.am     1 ZINC000521836460   -0.6200
11     C11    -5.9026   -2.1268   -0.6115 C.3      1 ZINC000521836460    0.0800
12     C12    -7.0981   -3.1020   -0.7512 C.3      1 ZINC000521836460   -0.1400
13     C13    -8.0200   -2.6322    0.4049 C.3      1 ZINC000521836460    0.1400
14     H14    -8.6210   -1.7770    0.0957 H        1 ZINC000521836460    0.1100
15     N15    -8.8781   -3.7283    0.8617 N.am     1 ZINC000521836460   -0.7200
16     C16   -10.0542   -3.4582    1.4618 C.2      1 ZINC000521836460    0.5500
17     O17   -10.4023   -2.3077    1.6237 O.2      1 ZINC000521836460   -0.5300
18     C18   -10.9369   -4.5857    1.9316 C.3      1 ZINC000521836460   -0.2000
19     C19   -11.1046   -4.7695    3.4413 C.3      1 ZINC000521836460   -0.1500
20     C20   -12.2593   -4.2139    2.6054 C.3      1 ZINC000521836460   -0.1500
21     C21    -7.0146   -2.2306    1.5045 C.3      1 ZINC000521836460    0.1000
22     C22    -2.1448   -0.9249    1.1414 C.2      1 ZINC000521836460   -0.1400
23     H23     1.2786    1.5261    0.2557 H        1 ZINC000521836460    0.0600
24     H24    -0.3011    1.8155   -0.5117 H        1 ZINC000521836460    0.0600
25     H25    -0.2061    1.4979    1.2371 H        1 ZINC000521836460    0.0600
26     H26     0.5045   -0.4838   -0.9731 H        1 ZINC000521836460    0.0900
27     H27     0.3825   -0.7859    2.0619 H        1 ZINC000521836460    0.0600
28     H28     0.7067   -2.0953    0.9006 H        1 ZINC000521836460    0.0600
29     H29     1.8671   -0.7577    1.0804 H        1 ZINC000521836460    0.0600
30     H30    -4.0972   -1.1755   -1.3022 H        1 ZINC000521836460    0.4400
31     H31    -6.1311   -1.1753   -1.0916 H        1 ZINC000521836460    0.0800
32     H32    -5.0032   -2.5648   -1.0444 H        1 ZINC000521836460    0.0800
33     H33    -7.5897   -2.9816   -1.7165 H        1 ZINC000521836460    0.1000
34     H34    -6.7800   -4.1339   -0.6025 H        1 ZINC000521836460    0.0900
35     H35    -8.5997   -4.6484    0.7322 H        1 ZINC000521836460    0.4100
36     H36   -10.9218   -5.4834    1.3136 H        1 ZINC000521836460    0.1300
37     H37   -11.1997   -5.7884    3.8167 H        1 ZINC000521836460    0.1100
38     H38   -10.5765   -4.0750    4.0946 H        1 ZINC000521836460    0.1000
39     H39   -12.4909   -3.1538    2.7088 H        1 ZINC000521836460    0.1100
40     H40   -13.1142   -4.8672    2.4308 H        1 ZINC000521836460    0.1100
41     H41    -6.8936   -3.0497    2.2133 H        1 ZINC000521836460    0.0800
42     H42    -7.3681   -1.3388    2.0222 H        1 ZINC000521836460    0.0800
43     H43    -1.8131   -0.9435    2.1691 H        1 ZINC000521836460    0.1700
@<TRIPOS>BOND
1     1     2     1
2     1     23    1
3     1     24    1
4     1     25    1
5     2     3     1
6     2     4     1
7     2     26    1
8     3     27    1
9     3     28    1
10    3     29    1
11    4     22    1
12    4     5     2
13    5     6     1
14    6     7     1
15    6     30    1
16    7     8     1
17    7     22    2
18    8     9     2
19    8     10    am
20    10    21    1
21    10    11    1
22    11    12    1
23    11    31    1
24    11    32    1
25    12    13    1
26    12    33    1
27    12    34    1
28    13    14    1
29    13    15    1
30    13    21    1
31    15    16    am
32    15    35    1
33    16    17    2
34    16    18    1
35    18    20    1
36    18    19    1
37    18    36    1
38    19    20    1
39    19    37    1
40    19    38    1
41    20    39    1
42    20    40    1
43    21    41    1
44    21    42    1
45    22    43    1
@<TRIPOS>SUBSTRUCTURE
1   ZINC000521836460 1     RESIDUE    1   A     ZIN   1


@<TRIPOS>MOLECULE
O=C1C(C(C)C)=C(C2=CC=CC=C2)NC3=C(C#N)C=NN31
  34   36    0    0    0
SMALL
USER_CHARGES
NO_NAME
@<TRIPOS>ATOM
    1 C1        0.4843     0.7627     0.5894 C.3    1 <0>      -0.1400
    2 C2        0.1536    -0.6956     0.2659 C.3    1 <0>      -0.0100
    3 C3        0.6692    -1.5970     1.3895 C.3    1 <0>      -0.1500
    4 C4       -1.3395    -0.8558     0.1386 C.2    1 <0>      -0.3300
    5 C5       -1.9084    -1.2428    -1.0664 C.2    1 <0>       0.2400
    6 C6       -1.0487    -1.5041    -2.2448 C.ar   1 <0>      -0.0200
    7 C7       -1.1690    -2.7029    -2.9471 C.ar   1 <0>      -0.0900
    8 C8       -0.3661    -2.9403    -4.0439 C.ar   1 <0>      -0.1300
    9 C9        0.5568    -1.9919    -4.4472 C.ar   1 <0>      -0.1200
   10 C10       0.6808    -0.8008    -3.7546 C.ar   1 <0>      -0.1300
   11 C11      -0.1203    -0.5498    -2.6594 C.ar   1 <0>      -0.1000
   12 N12      -3.2368    -1.3798    -1.1601 N.2    1 <0>      -0.5700
   13 C13      -4.0219    -1.1534    -0.1257 C.2    1 <0>       0.3800
   14 C14      -5.4830    -1.2282     0.0419 C.2    1 <0>      -0.2700
   15 C15      -6.4414    -1.5902    -0.9587 C.1    1 <0>       0.3300
   16 N16      -7.2016    -1.8775    -1.7524 N.1    1 <0>      -0.5000
   17 C17      -5.7487    -0.8818     1.3495 C.2    1 <0>       0.1300
   18 N18      -4.5786    -0.6075     1.9761 N.pl3  1 <0>      -0.3500
   19 N19      -3.5123    -0.7697     1.0847 N.am   1 <0>      -0.3600
   20 C20      -2.1794    -0.6217     1.2380 C.2    1 <0>       0.5500
   21 O21      -1.7126    -0.2873     2.3148 O.2    1 <0>      -0.5600
   22 H22       1.5643     0.8785     0.6814 H      1 <0>       0.0500
   23 H23       0.1170     1.4048    -0.2111 H      1 <0>       0.0400
   24 H24       0.0074     1.0438     1.5284 H      1 <0>       0.0700
   25 H25       0.6305    -0.9767    -0.6731 H      1 <0>       0.0700
   26 H26       1.7491    -1.4811     1.4816 H      1 <0>       0.0400
   27 H27       0.1923    -1.3159     2.3285 H      1 <0>       0.0700
   28 H28       0.4335    -2.6359     1.1591 H      1 <0>       0.0400
   29 H29      -1.8889    -3.4441    -2.6329 H      1 <0>       0.1200
   30 H30      -0.4581    -3.8684    -4.5883 H      1 <0>       0.1200
   31 H31       1.1833    -2.1823    -5.3061 H      1 <0>       0.1200
   32 H32       1.4031    -0.0642    -4.0741 H      1 <0>       0.1200
   33 H33      -0.0229     0.3805    -2.1196 H      1 <0>       0.1300
   34 H34      -6.7288    -0.8365     1.8007 H      1 <0>       0.1800
@<TRIPOS>BOND
   1    1    2 1
   2    1   22 1
   3    1   23 1
   4    1   24 1
   5    2    3 1
   6    2    4 1
   7    2   25 1
   8    3   26 1
   9    3   27 1
  10    3   28 1
  11    4   20 1
  12    4    5 2
  13    5    6 1
  14    5   12 1
  15    6   11 ar
  16    6    7 ar
  17    7    8 ar
  18    7   29 1
  19    8    9 ar
  20    8   30 1
  21    9   10 ar
  22    9   31 1
  23   10   11 ar
  24   10   32 1
  25   11   33 1
  26   12   13 2
  27   13   19 1
  28   13   14 1
  29   14   15 1
  30   14   17 2
  31   15   16 3
  32   17   18 1
  33   17   34 1
  34   18   19 1
  35   19   20 am
  36   20   21 2


@<TRIPOS>MOLECULE
O=C1NC(C(F)(F)F)=NC2=CN=CC=C21
  19   20    0    0    0
SMALL
USER_CHARGES
NO_NAME
@<TRIPOS>ATOM
    1 O1        0.0021    -0.0041     0.0020 O.2    1 <0>      -0.4800
    2 C2       -0.0144     1.2127     0.0087 C.2    1 <0>       0.5600
    3 N3       -1.1801     1.9027     0.0293 N.am   1 <0>      -0.6300
    4 C4       -1.1792     3.2612     0.0369 C.2    1 <0>       0.3200
    5 C5       -2.5063     3.9750     0.0605 C.3    1 <0>       0.5300
    6 F6       -2.2921     5.3575     0.0651 F      1 <0>      -0.1400
    7 F7       -3.2461     3.6215    -1.0731 F      1 <0>      -0.1600
    8 F8       -3.2125     3.6086     1.2112 F      1 <0>      -0.1600
    9 N9       -0.0958     3.9780     0.0255 N.2    1 <0>      -0.4400
   10 C10       1.1316     3.4056     0.0047 C.ar   1 <0>       0.0800
   11 C11       2.3098     4.1566    -0.0079 C.ar   1 <0>       0.1500
   12 N12       3.4774     3.5506    -0.0285 N.ar   1 <0>      -0.4500
   13 C13       3.6001     2.2352    -0.0377 C.ar   1 <0>       0.1000
   14 C14       2.4933     1.4096    -0.0266 C.ar   1 <0>      -0.0900
   15 C15       1.2298     1.9957     0.0010 C.ar   1 <0>      -0.1400
   16 H16      -2.0228     1.4225     0.0383 H      1 <0>       0.4300
   17 H17       2.2620     5.2355    -0.0011 H      1 <0>       0.1800
   18 H18       4.5868     1.7963    -0.0547 H      1 <0>       0.1800
   19 H19       2.6045     0.3354    -0.0350 H      1 <0>       0.1600
@<TRIPOS>BOND
   1    1    2 2
   2    2   15 1
   3    2    3 am
   4    3    4 1
   5    3   16 1
   6    4    5 1
   7    4    9 2
   8    5    6 1
   9    5    7 1
  10    5    8 1
  11    9   10 1
  12   10   15 ar
  13   10   11 ar
  14   11   12 ar
  15   11   17 1
  16   12   13 ar
  17   13   14 ar
  18   13   18 1
  19   14   15 ar
  20   14   19 1


@<TRIPOS>MOLECULE
ClC1=CN=C(N/N=C(C2=CC=CC=C2)/C3=NC=CC=C3)C=C1
  35   37    0    0    0
SMALL
USER_CHARGES
NO_NAME
@<TRIPOS>ATOM
    1 Cl1       0.0021    -0.0041     0.0020 Cl     1 <0>      -0.0400
    2 C2       -0.0215     1.7317     0.0116 C.ar   1 <0>      -0.0700
    3 C3       -1.2289     2.4161     0.0326 C.ar   1 <0>      -0.0700
    4 C4       -1.2036     3.8004     0.0395 C.ar   1 <0>      -0.0900
    5 C5        0.0274     4.4558     0.0252 C.ar   1 <0>       0.2400
    6 N6        0.0681     5.8269     0.0323 N.2    1 <0>      -0.1900
    7 N7        1.1597     6.4148     0.0197 N.2    1 <0>      -0.1600
    8 C8        1.2032     7.8792     0.0273 C.3    1 <0>       0.1500
    9 C9        2.6345     8.3388     0.1328 C.ar   1 <0>      -0.0700
   10 C10       3.6251     7.6820    -0.5730 C.ar   1 <0>      -0.0900
   11 C11       4.9381     8.1035    -0.4762 C.ar   1 <0>      -0.1200
   12 C12       5.2603     9.1822     0.3261 C.ar   1 <0>      -0.1100
   13 C13       4.2695     9.8395     1.0312 C.ar   1 <0>      -0.1200
   14 C14       2.9560     9.4206     0.9310 C.ar   1 <0>      -0.0900
   15 C15       0.5991     8.4063    -1.2488 C.ar   1 <0>       0.1300
   16 C16       0.0190     7.5275    -2.1436 C.ar   1 <0>      -0.1600
   17 C17      -0.5344     8.0228    -3.3147 C.ar   1 <0>      -0.0700
   18 C18      -0.4831     9.3893    -3.5424 C.ar   1 <0>      -0.1700
   19 C19       0.1138    10.2069    -2.6012 C.ar   1 <0>       0.1100
   20 N20       0.6256     9.7014    -1.4961 N.ar   1 <0>      -0.4700
   21 N21       1.1607     3.7635     0.0052 N.ar   1 <0>      -0.4500
   22 C22       1.1656     2.4479     0.0041 C.ar   1 <0>       0.1200
   23 H23      -2.1669     1.8809     0.0429 H      1 <0>       0.1600
   24 H24      -2.1243     4.3649     0.0554 H      1 <0>       0.1600
   25 H25       0.6371     8.2551     0.8796 H      1 <0>       0.1200
   26 H26       3.3734     6.8393    -1.1998 H      1 <0>       0.1200
   27 H27       5.7121     7.5900    -1.0271 H      1 <0>       0.1200
   28 H28       6.2862     9.5111     0.4023 H      1 <0>       0.1200
   29 H29       4.5213    10.6820     1.6583 H      1 <0>       0.1200
   30 H30       2.1819     9.9342     1.4819 H      1 <0>       0.1200
   31 H31      -0.0029     6.4683    -1.9337 H      1 <0>       0.1300
   32 H32      -0.9942     7.3597    -4.0325 H      1 <0>       0.1400
   33 H33      -0.9038     9.8097    -4.4438 H      1 <0>       0.1400
   34 H34       0.1583    11.2725    -2.7712 H      1 <0>       0.1600
   35 H35       2.1069     1.9187    -0.0121 H      1 <0>       0.1700
@<TRIPOS>BOND
   1    1    2 1
   2    2   22 ar
   3    2    3 ar
   4    3    4 ar
   5    3   23 1
   6    4    5 ar
   7    4   24 1
   8    5    6 1
   9    5   21 ar
  10    6    7 2
  11    7    8 1
  12    8    9 1
  13    8   15 1
  14    8   25 1
  15    9   14 ar
  16    9   10 ar
  17   10   11 ar
  18   10   26 1
  19   11   12 ar
  20   11   27 1
  21   12   13 ar
  22   12   28 1
  23   13   14 ar
  24   13   29 1
  25   14   30 1
  26   15   20 ar
  27   15   16 ar
  28   16   17 ar
  29   16   31 1
  30   17   18 ar
  31   17   32 1
  32   18   19 ar
  33   18   33 1
  34   19   20 ar
  35   19   34 1
  36   21   22 ar
  37   22   35 1


@<TRIPOS>MOLECULE
C=CCOC1=C(CNN2C(S)=NN=C2)C=CC=C1OC
  36   37    0    0    0
SMALL
USER_CHARGES
NO_NAME
@<TRIPOS>ATOM
    1 C1       -2.0036    -1.1268     1.0328 C.2    1 <0>      -0.1700
    2 C2       -0.7493    -0.7738     1.1678 C.2    1 <0>      -0.1500
    3 C3        0.2851    -1.8000     1.5525 C.3    1 <0>       0.1000
    4 O4        1.4406    -1.6444     0.7263 O.3    1 <0>      -0.3100
    5 C5        2.5136    -2.4298     1.0113 C.ar   1 <0>       0.0800
    6 C6        2.7032    -3.6203     0.3288 C.ar   1 <0>      -0.0700
    7 C7        1.7198    -4.0463    -0.7307 C.3    1 <0>       0.0800
    8 N8        1.9675    -3.2858    -1.9628 N.3    1 <0>      -0.4100
    9 N9        1.1691    -3.7273    -2.9795 N.am   1 <0>      -0.3400
   10 C10       1.3353    -4.8948    -3.6830 C.2    1 <0>       0.2800
   11 N11       0.3959    -4.9865    -4.5683 N.2    1 <0>      -0.2700
   12 N12      -0.4210    -3.8530    -4.4566 N.am   1 <0>      -0.4700
   13 C13       0.0800    -3.0941    -3.4596 C.2    1 <0>       0.4400
   14 S14      -0.5453    -1.5971    -2.9129 S.2    1 <0>      -0.5500
   15 C15       3.7950    -4.4176     0.6195 C.ar   1 <0>      -0.1200
   16 C16       4.6988    -4.0298     1.5906 C.ar   1 <0>      -0.0800
   17 C17       4.5152    -2.8429     2.2759 C.ar   1 <0>      -0.1900
   18 C18       3.4269    -2.0365     1.9853 C.ar   1 <0>       0.1100
   19 O19       3.2449    -0.8689     2.6583 O.3    1 <0>      -0.3000
   20 C20       4.2153    -0.5353     3.6528 C.3    1 <0>       0.0200
   21 H21      -2.2964    -2.1533     1.1972 H      1 <0>       0.0900
   22 H22      -2.7456    -0.3904     0.7615 H      1 <0>       0.1100
   23 H23      -0.4565     0.2527     1.0035 H      1 <0>       0.1200
   24 H24       0.5639    -1.6610     2.5970 H      1 <0>       0.0600
   25 H25      -0.1269    -2.7999     1.4163 H      1 <0>       0.0500
   26 H26       1.8397    -5.1111    -0.9306 H      1 <0>       0.1000
   27 H27       0.7049    -3.8540    -0.3828 H      1 <0>       0.0700
   28 H28       1.8425    -2.2965    -1.8085 H      1 <0>       0.4000
   29 H29       2.1216    -5.6180    -3.5237 H      1 <0>       0.2500
   30 H30      -1.2036    -3.6530    -4.9937 H      1 <0>       0.4700
   31 H31       3.9417    -5.3455     0.0867 H      1 <0>       0.1300
   32 H32       5.5501    -4.6554     1.8149 H      1 <0>       0.1300
   33 H33       5.2225    -2.5425     3.0347 H      1 <0>       0.1400
   34 H34       5.1985    -0.4558     3.1890 H      1 <0>       0.0600
   35 H35       3.9521     0.4176     4.1121 H      1 <0>       0.1000
   36 H36       4.2355    -1.3132     4.4161 H      1 <0>       0.0600
@<TRIPOS>BOND
   1    1    2 2
   2    1   21 1
   3    1   22 1
   4    2    3 1
   5    2   23 1
   6    3    4 1
   7    3   24 1
   8    3   25 1
   9    4    5 1
  10    5   18 ar
  11    5    6 ar
  12    6    7 1
  13    6   15 ar
  14    7    8 1
  15    7   26 1
  16    7   27 1
  17    8    9 1
  18    8   28 1
  19    9   13 am
  20    9   10 1
  21   10   11 2
  22   10   29 1
  23   11   12 1
  24   12   13 am
  25   12   30 1
  26   13   14 2
  27   15   16 ar
  28   15   31 1
  29   16   17 ar
  30   16   32 1
  31   17   18 ar
  32   17   33 1
  33   18   19 1
  34   19   20 1
  35   20   34 1
  36   20   35 1
  37   20   36 1


@<TRIPOS>MOLECULE
O=C(NC1=CC=CC=C1)C2=CC([N+]([O-])=O)=CC=C2Cl
  28   29    0    0    0
SMALL
USER_CHARGES
NO_NAME
@<TRIPOS>ATOM
    1 O1        0.0020    -0.0040     0.0118 O.2    1 <0>      -0.4800
    2 C2       -0.0145     1.2116     0.0104 C.2    1 <0>       0.5600
    3 N3        1.1435     1.9012     0.0014 N.am   1 <0>      -0.6700
    4 C4        2.3626     1.2219     0.0916 C.ar   1 <0>       0.1400
    5 C5        3.4245     1.7872     0.7858 C.ar   1 <0>      -0.1400
    6 C6        4.6271     1.1137     0.8730 C.ar   1 <0>      -0.1000
    7 C7        4.7746    -0.1220     0.2702 C.ar   1 <0>      -0.1300
    8 C8        3.7194    -0.6874    -0.4221 C.ar   1 <0>      -0.1000
    9 C9        2.5122    -0.0220    -0.5079 C.ar   1 <0>      -0.1200
   10 C10      -1.3038     1.9330     0.0124 C.ar   1 <0>      -0.1300
   11 C11      -1.3265     3.3288     0.0050 C.ar   1 <0>      -0.0100
   12 C12      -2.5337     3.9961     0.0070 C.ar   1 <0>      -0.0500
   13 N13      -2.5589     5.4760    -0.0013 N.pl3  1 <0>       0.0300
   14 O14      -1.5146     6.1029    -0.0100 O.2    1 <0>      -0.1500
   15 O15      -3.6239     6.0670     0.0004 O.2    1 <0>      -0.1400
   16 C16      -3.7212     3.2858     0.0163 C.ar   1 <0>      -0.0200
   17 C17      -3.7076     1.9028     0.0242 C.ar   1 <0>      -0.1100
   18 C18      -2.5064     1.2212     0.0160 C.ar   1 <0>       0.0600
   19 Cl19     -2.4905    -0.5147     0.0253 Cl     1 <0>       0.0100
   20 H20       1.1313     2.8687    -0.0678 H      1 <0>       0.4100
   21 H21       3.3101     2.7524     1.2565 H      1 <0>       0.1300
   22 H22       5.4534     1.5529     1.4124 H      1 <0>       0.1300
   23 H23       5.7161    -0.6466     0.3399 H      1 <0>       0.1300
   24 H24       3.8380    -1.6525    -0.8921 H      1 <0>       0.1300
   25 H25       1.6885    -0.4640    -1.0487 H      1 <0>       0.1400
   26 H26      -0.4007     3.8850    -0.0019 H      1 <0>       0.1600
   27 H27      -4.6633     3.8140     0.0178 H      1 <0>       0.1700
   28 H28      -4.6382     1.3547     0.0318 H      1 <0>       0.1700
@<TRIPOS>BOND
   1    1    2 2
   2    2    3 am
   3    2   10 1
   4    3    4 1
   5    3   20 1
   6    4    9 ar
   7    4    5 ar
   8    5    6 ar
   9    5   21 1
  10    6    7 ar
  11    6   22 1
  12    7    8 ar
  13    7   23 1
  14    8    9 ar
  15    8   24 1
  16    9   25 1
  17   10   18 ar
  18   10   11 ar
  19   11   12 ar
  20   11   26 1
  21   12   13 1
  22   12   16 ar
  23   13   14 2
  24   13   15 2
  25   16   17 ar
  26   16   27 1
  27   17   18 ar
  28   17   28 1
  29   18   19 1


@<TRIPOS>MOLECULE
ClC1=C(C=C(C=C1)[N+]([O-])=O)C(NC2=CC=NC=C2)=O
27    28    1     0     0
SMALL
USER_CHARGES
@<TRIPOS>ATOM
1      O1      0.0023   -0.0042    0.0045 O.2      1 ZINC000000003381   -0.4800
2      C2     -0.0144    1.2113    0.0070 C.2      1 ZINC000000003381    0.5600
3      N3      1.1435    1.9011    0.0014 N.am     1 ZINC000000003381   -0.6700
4      C4      2.3592    1.2237    0.0914 C.ar     1 ZINC000000003381    0.1900
5      C5      2.5294   -0.0230   -0.5090 C.ar     1 ZINC000000003381   -0.1700
6      C6      3.7477   -0.6601   -0.3972 C.ar     1 ZINC000000003381    0.1200
7      N7      4.7432   -0.1044    0.2675 N.ar     1 ZINC000000003381   -0.4900
8      C8      4.6216    1.0738    0.8494 C.ar     1 ZINC000000003381    0.1200
9      C9      3.4377    1.7783    0.7792 C.ar     1 ZINC000000003381   -0.2000
10     C10    -1.3037    1.9324    0.0102 C.ar     1 ZINC000000003381   -0.1300
11     C11    -1.3267    3.3282    0.0073 C.ar     1 ZINC000000003381   -0.0100
12     C12    -2.5340    3.9953    0.0103 C.ar     1 ZINC000000003381   -0.0500
13     N13    -2.5595    5.4753    0.0067 N.pl3    1 ZINC000000003381    0.0300
14     O14    -1.5153    6.1023    0.0011 O.2      1 ZINC000000003381   -0.1500
15     O15    -3.6246    6.0660    0.0093 O.2      1 ZINC000000003381   -0.1400
16     C16    -3.7215    3.2848    0.0161 C.ar     1 ZINC000000003381   -0.0100
17     C17    -3.7076    1.9017    0.0190 C.ar     1 ZINC000000003381   -0.1100
18     C18    -2.5063    1.2204    0.0103 C.ar     1 ZINC000000003381    0.0600
19     Cl19   -2.4901   -0.5155    0.0133 Cl       1 ZINC000000003381    0.0100
20     H20     1.1312    2.8688   -0.0654 H        1 ZINC000000003381    0.4100
21     H21     1.7186   -0.4836   -1.0538 H        1 ZINC000000003381    0.1500
22     H22     3.8886   -1.6261   -0.8591 H        1 ZINC000000003381    0.1600
23     H23     5.4608    1.4935    1.3842 H        1 ZINC000000003381    0.1600
24     H24     3.3449    2.7422    1.2574 H        1 ZINC000000003381    0.1400
25     H25    -0.4010    3.8846    0.0031 H        1 ZINC000000003381    0.1600
26     H26    -4.6636    3.8127    0.0188 H        1 ZINC000000003381    0.1700
27     H27    -4.6381    1.3534    0.0236 H        1 ZINC000000003381    0.1700
@<TRIPOS>BOND
1     1     2     2
2     2     3     am
3     2     10    1
4     3     4     1
5     3     20    1
6     4     9     ar
7     4     5     ar
8     5     6     ar
9     5     21    1
10    6     7     ar
11    6     22    1
12    7     8     ar
13    8     9     ar
14    8     23    1
15    9     24    1
16    10    18    ar
17    10    11    ar
18    11    12    ar
19    11    25    1
20    12    13    1
21    12    16    ar
22    13    14    2
23    13    15    2
24    16    17    ar
25    16    26    1
26    17    18    ar
27    17    27    1
28    18    19    1
@<TRIPOS>SUBSTRUCTURE
1   ZINC000000003381 1     RESIDUE    1   A     ZIN   1


@<TRIPOS>MOLECULE
O=C(C(C)(C)C)/N=C1N(CC=C)C=C([N+]([O-])=O)S/1
33    33    1     0     0
SMALL
USER_CHARGES
@<TRIPOS>ATOM
1      C1     -0.0157    1.3058    0.0092 C.2      1 ZINC000040380596   -0.1500
2      C2      0.0021   -0.0041    0.0020 C.2      1 ZINC000040380596   -0.1900
3      C3     -1.2926   -0.7753    0.0102 C.3      1 ZINC000040380596    0.1300
4      N4     -1.3176   -1.6997   -1.1260 N.pl3    1 ZINC000040380596   -0.4600
5      C5     -1.8167   -1.3263   -2.3337 C.2      1 ZINC000040380596    0.1900
6      C6     -1.7942   -2.2371   -3.2988 C.2      1 ZINC000040380596   -0.2500
7      N7     -2.2738   -2.0809   -4.6903 N.pl3    1 ZINC000040380596    0.0800
8      O8     -2.7539   -1.0221   -5.0537 O.2      1 ZINC000040380596   -0.1400
9      O9     -2.1885   -3.0111   -5.4719 O.2      1 ZINC000040380596   -0.1300
10     S10    -1.0685   -3.6799   -2.5692 S.3      1 ZINC000040380596    0.2900
11     C11    -0.8396   -2.9612   -1.0210 C.2      1 ZINC000040380596    0.3600
12     N12    -0.3071   -3.5330    0.0613 N.2      1 ZINC000040380596   -0.5800
13     C13     0.1123   -4.7906    0.0087 C.2      1 ZINC000040380596    0.5000
14     O14     0.0115   -5.4227   -1.0258 O.2      1 ZINC000040380596   -0.5200
15     C15     0.7135   -5.4360    1.2306 C.3      1 ZINC000040380596   -0.0600
16     C16     1.1113   -6.8766    0.9029 C.3      1 ZINC000040380596   -0.1300
17     C17     1.9530   -4.6509    1.6645 C.3      1 ZINC000040380596   -0.1400
18     C18    -0.3132   -5.4359    2.3649 C.3      1 ZINC000040380596   -0.1400
19     H19     0.9122    1.8585    0.0033 H        1 ZINC000040380596    0.1100
20     H20    -0.9582    1.8330    0.0166 H        1 ZINC000040380596    0.1000
21     H21     0.9446   -0.5313   -0.0098 H        1 ZINC000040380596    0.1200
22     H22    -1.3737   -1.3393    0.9394 H        1 ZINC000040380596    0.1200
23     H23    -2.1295   -0.0812   -0.0676 H        1 ZINC000040380596    0.1100
24     H24    -2.2132   -0.3356   -2.5000 H        1 ZINC000040380596    0.2100
25     H25     1.8428   -6.8767    0.0948 H        1 ZINC000040380596    0.0600
26     H26     1.5461   -7.3435    1.7866 H        1 ZINC000040380596    0.0700
27     H27     0.2283   -7.4360    0.5938 H        1 ZINC000040380596    0.0600
28     H28     1.6696   -3.6246    1.8980 H        1 ZINC000040380596    0.0700
29     H29     2.3878   -5.1178    2.5483 H        1 ZINC000040380596    0.0700
30     H30     2.6845   -4.6510    0.8564 H        1 ZINC000040380596    0.0500
31     H31    -1.1962   -5.9952    2.0558 H        1 ZINC000040380596    0.0600
32     H32     0.1217   -5.9028    3.2487 H        1 ZINC000040380596    0.0700
33     H33    -0.5966   -4.4096    2.5984 H        1 ZINC000040380596    0.0700
@<TRIPOS>BOND
1     1     2     2
2     1     19    1
3     1     20    1
4     2     3     1
5     2     21    1
6     3     4     1
7     3     22    1
8     3     23    1
9     4     11    1
10    4     5     1
11    5     6     2
12    5     24    1
13    6     7     1
14    6     10    1
15    7     8     2
16    7     9     2
17    10    11    1
18    11    12    2
19    12    13    1
20    13    14    2
21    13    15    1
22    15    16    1
23    15    17    1
24    15    18    1
25    16    25    1
26    16    26    1
27    16    27    1
28    17    28    1
29    17    29    1
30    17    30    1
31    18    31    1
32    18    32    1
33    18    33    1
@<TRIPOS>SUBSTRUCTURE
1   ZINC000040380596 1     RESIDUE    1   A     ZIN   1


@<TRIPOS>MOLECULE
O=P(OC)(OC)OC(C1=CC=C(Cl)C=C1)P(OC)(OC)=O
38    38    1     0     0
SMALL
USER_CHARGES
@<TRIPOS>ATOM
1      C1     -0.0173    1.4248    0.0099 C.3      1 ZINC000001842811    0.0600
2      O2      0.0021   -0.0041    0.0020 O.3      1 ZINC000001842811   -0.7300
3      P3      0.6778   -0.8654   -1.1785 P.3      1 ZINC000001842811    2.3000
4      O4      0.5271   -2.3081   -0.8849 O.2      1 ZINC000001842811   -0.9700
5      O5     -0.0469   -0.5233   -2.5749 O.3      1 ZINC000001842811   -0.7400
6      C6     -1.4173   -0.8321   -2.8366 C.3      1 ZINC000001842811    0.0800
7      O7      2.2423   -0.4993   -1.2820 O.3      1 ZINC000001842811   -0.7100
8      C8      3.1787   -0.7840   -0.2408 C.3      1 ZINC000001842811   -0.3700
9      H9      2.6707   -0.7532    0.7232 H        1 ZINC000001842811    0.1000
10     C10     4.2804    0.2441   -0.2611 C.ar     1 ZINC000001842811   -0.1100
11     C11     4.6428    0.8449   -1.4522 C.ar     1 ZINC000001842811   -0.0500
12     C12     5.6532    1.7879   -1.4714 C.ar     1 ZINC000001842811   -0.1100
13     C13     6.3018    2.1304   -0.2984 C.ar     1 ZINC000001842811   -0.0200
14     Cl14    7.5705    3.3151   -0.3217 Cl       1 ZINC000001842811   -0.0600
15     C15     5.9386    1.5288    0.8934 C.ar     1 ZINC000001842811   -0.1100
16     C16     4.9243    0.5901    0.9123 C.ar     1 ZINC000001842811   -0.0900
17     P17     3.8902   -2.4423   -0.5000 P.3      1 ZINC000001842811    2.3500
18     O18     4.5799   -2.4841   -1.8089 O.2      1 ZINC000001842811   -0.9900
19     O19     4.9452   -2.7630    0.6730 O.3      1 ZINC000001842811   -0.7500
20     C20     5.7494   -3.9441    0.6950 C.3      1 ZINC000001842811    0.0700
21     O21     2.7132   -3.5406   -0.4783 O.3      1 ZINC000001842811   -0.7100
22     C22     2.9349   -4.9246   -0.7568 C.3      1 ZINC000001842811    0.0800
23     H23     1.0053    1.8021    0.0021 H        1 ZINC000001842811    0.0600
24     H24    -0.5445    1.7859   -0.8732 H        1 ZINC000001842811    0.0600
25     H25    -0.5275    1.7763    0.9067 H        1 ZINC000001842811    0.1100
26     H26    -1.5698   -1.9080   -2.7524 H        1 ZINC000001842811    0.0700
27     H27    -2.0502   -0.3177   -2.1134 H        1 ZINC000001842811    0.0500
28     H28    -1.6773   -0.5060   -3.8437 H        1 ZINC000001842811    0.1000
29     H29     4.1367    0.5772   -2.3679 H        1 ZINC000001842811    0.1500
30     H30     5.9365    2.2570   -2.4021 H        1 ZINC000001842811    0.1400
31     H31     6.4448    1.7955    1.8093 H        1 ZINC000001842811    0.1400
32     H32     4.6404    0.1206    1.8426 H        1 ZINC000001842811    0.1400
33     H33     5.1044   -4.8225    0.7151 H        1 ZINC000001842811    0.0600
34     H34     6.3759   -3.9736   -0.1964 H        1 ZINC000001842811    0.0700
35     H35     6.3813   -3.9369    1.5831 H        1 ZINC000001842811    0.1000
36     H36     3.6459   -5.3306   -0.0373 H        1 ZINC000001842811    0.0500
37     H37     1.9919   -5.4661   -0.6811 H        1 ZINC000001842811    0.1000
38     H38     3.3360   -5.0327   -1.7646 H        1 ZINC000001842811    0.0700
@<TRIPOS>BOND
1     1     2     1
2     1     23    1
3     1     24    1
4     1     25    1
5     2     3     1
6     3     4     2
7     3     5     1
8     3     7     1
9     5     6     1
10    6     26    1
11    6     27    1
12    6     28    1
13    7     8     1
14    8     9     1
15    8     10    1
16    8     17    1
17    10    16    ar
18    10    11    ar
19    11    12    ar
20    11    29    1
21    12    13    ar
22    12    30    1
23    13    14    1
24    13    15    ar
25    15    16    ar
26    15    31    1
27    16    32    1
28    17    18    2
29    17    19    1
30    17    21    1
31    19    20    1
32    20    33    1
33    20    34    1
34    20    35    1
35    21    22    1
36    22    36    1
37    22    37    1
38    22    38    1
@<TRIPOS>SUBSTRUCTURE
1   ZINC000001842811 1     RESIDUE    1   A     ZIN   1


@<TRIPOS>MOLECULE
CCC(CC1=CC=C(C=C1)C(=O)NCC2=C(C=C(C=C2)OC)C(F)(F)F)C(=O)O
50    51    1     0     0
SMALL
USER_CHARGES
@<TRIPOS>ATOM
1      C1     -0.0187    1.5258    0.0104 C.3      1 ZINC000575440732   -0.1400
2      C2      0.0021   -0.0041    0.0020 C.3      1 ZINC000575440732   -0.1000
3      C3      0.7182   -0.4975   -1.2568 C.3      1 ZINC000575440732   -0.1500
4      H4      1.7103   -0.0491   -1.3098 H        1 ZINC000575440732    0.0600
5      C5      0.8493   -2.0210   -1.2049 C.3      1 ZINC000575440732   -0.0700
6      C6      1.6611   -2.4957   -2.3824 C.ar     1 ZINC000575440732   -0.0300
7      C7      1.0289   -2.8157   -3.5708 C.ar     1 ZINC000575440732   -0.1000
8      C8      1.7662   -3.2513   -4.6524 C.ar     1 ZINC000575440732   -0.0500
9      C9      3.1530   -3.3685   -4.5461 C.ar     1 ZINC000575440732   -0.1500
10     C10     3.9495   -3.8342   -5.7013 C.2      1 ZINC000575440732    0.5700
11     O11     3.3968   -4.1160   -6.7465 O.2      1 ZINC000575440732   -0.5400
12     N12     5.2884   -3.9463   -5.5954 N.am     1 ZINC000575440732   -0.7300
13     C13     6.0777   -4.4077   -6.7401 C.3      1 ZINC000575440732    0.1500
14     C14     7.5362   -4.4440   -6.3627 C.ar     1 ZINC000575440732   -0.0900
15     C15     8.3728   -3.4105   -6.7411 C.ar     1 ZINC000575440732   -0.0600
16     C16     9.7103   -3.4412   -6.3959 C.ar     1 ZINC000575440732   -0.1800
17     C17    10.2135   -4.5101   -5.6692 C.ar     1 ZINC000575440732    0.1300
18     O18    11.5286   -4.5424   -5.3281 O.3      1 ZINC000575440732   -0.3100
19     C19    12.3357   -3.4416   -5.7511 C.3      1 ZINC000575440732    0.0200
20     C20     9.3717   -5.5462   -5.2906 C.ar     1 ZINC000575440732   -0.1100
21     C21     8.0343   -5.5083   -5.6336 C.ar     1 ZINC000575440732   -0.1300
22     C22     7.1194   -6.6330   -5.2223 C.3      1 ZINC000575440732    0.5100
23     F23     7.8489   -7.5905   -4.5094 F        1 ZINC000575440732   -0.1800
24     F24     6.0956   -6.1290   -4.4130 F        1 ZINC000575440732   -0.1600
25     F25     6.5645   -7.2234   -6.3628 F        1 ZINC000575440732   -0.1700
26     C26     3.7846   -3.0436   -3.3445 C.ar     1 ZINC000575440732   -0.0900
27     C27     3.0361   -2.6042   -2.2721 C.ar     1 ZINC000575440732   -0.1300
28     C28    -0.0771   -0.1029   -2.4745 C.2      1 ZINC000575440732    0.5100
29     O29     0.4235    0.6153   -3.3231 O.co2    1 ZINC000575440732   -0.7000
30     O30    -1.2211   -0.5017   -2.6110 O.co2    1 ZINC000575440732   -0.7000
31     H31     1.0039    1.9031    0.0027 H        1 ZINC000575440732    0.0500
32     H32    -0.5459    1.8868   -0.8726 H        1 ZINC000575440732    0.0600
33     H33    -0.5289    1.8773    0.9072 H        1 ZINC000575440732    0.0400
34     H34     0.5293   -0.3651    0.8851 H        1 ZINC000575440732    0.0400
35     H35    -1.0205   -0.3814    0.0098 H        1 ZINC000575440732    0.0600
36     H36     1.3468   -2.3116   -0.2797 H        1 ZINC000575440732    0.0600
37     H37    -0.1422   -2.4724   -1.2416 H        1 ZINC000575440732    0.0800
38     H38    -0.0442   -2.7246   -3.6518 H        1 ZINC000575440732    0.1400
39     H39     1.2715   -3.5014   -5.5793 H        1 ZINC000575440732    0.1300
40     H40     5.7295   -3.7214   -4.7612 H        1 ZINC000575440732    0.4000
41     H41     5.7516   -5.4075   -7.0268 H        1 ZINC000575440732    0.0900
42     H42     5.9360   -3.7251   -7.5779 H        1 ZINC000575440732    0.0900
43     H43     7.9806   -2.5786   -7.3072 H        1 ZINC000575440732    0.1400
44     H44    10.3635   -2.6337   -6.6920 H        1 ZINC000575440732    0.1400
45     H45    12.3168   -3.3741   -6.8388 H        1 ZINC000575440732    0.0600
46     H46    11.9446   -2.5187   -5.3229 H        1 ZINC000575440732    0.0600
47     H47    13.3613   -3.5925   -5.4142 H        1 ZINC000575440732    0.1000
48     H48     9.7612   -6.3797   -4.7250 H        1 ZINC000575440732    0.1500
49     H49     4.8572   -3.1325   -3.2556 H        1 ZINC000575440732    0.1200
50     H50     3.5235   -2.3522   -1.3420 H        1 ZINC000575440732    0.1200
@<TRIPOS>BOND
1     1     2     1
2     1     31    1
3     1     32    1
4     1     33    1
5     2     3     1
6     2     34    1
7     2     35    1
8     3     4     1
9     3     5     1
10    3     28    1
11    5     6     1
12    5     36    1
13    5     37    1
14    6     27    ar
15    6     7     ar
16    7     8     ar
17    7     38    1
18    8     9     ar
19    8     39    1
20    9     10    1
21    9     26    ar
22    10    11    2
23    10    12    am
24    12    13    1
25    12    40    1
26    13    14    1
27    13    41    1
28    13    42    1
29    14    21    ar
30    14    15    ar
31    15    16    ar
32    15    43    1
33    16    17    ar
34    16    44    1
35    17    18    1
36    17    20    ar
37    18    19    1
38    19    45    1
39    19    46    1
40    19    47    1
41    20    21    ar
42    20    48    1
43    21    22    1
44    22    23    1
45    22    24    1
46    22    25    1
47    26    27    ar
48    26    49    1
49    27    50    1
50    28    29    ar
51    28    30    ar
@<TRIPOS>SUBSTRUCTURE
1   ZINC000575440732 1     RESIDUE    1   A     ZIN   1


@<TRIPOS>MOLECULE
CN1C2=CC=CC=C2N=C1C3=CC(C)=C4C(N(CCOC5=CC=C(CC(C(OCC)=O)(C)OC6=CC=CC=C6)C=C5)C(CCC)=N4)=C3
89    94    1     0     0
SMALL
USER_CHARGES
@<TRIPOS>ATOM
1      C1      1.3312    0.7705    2.2539 C.3      1 ZINC000049695141   -0.1500
2      C2      1.2703   -0.7110    1.8767 C.3      1 ZINC000049695141   -0.1200
3      C3      1.9923   -0.9284    0.5454 C.3      1 ZINC000049695141   -0.0500
4      C4      1.9323   -2.3877    0.1738 C.2      1 ZINC000049695141    0.3000
5      N5      2.8138   -3.2813    0.5184 N.2      1 ZINC000049695141   -0.4800
6      C6      2.4571   -4.4915    0.0196 C.ar     1 ZINC000049695141    0.0700
7      C7      3.0310   -5.7658    0.0857 C.ar     1 ZINC000049695141   -0.0300
8      C8      4.3187   -5.9731    0.8407 C.3      1 ZINC000049695141   -0.1100
9      C9      2.4267   -6.8199   -0.5316 C.ar     1 ZINC000049695141   -0.0900
10     C10     1.2299   -6.6407   -1.2365 C.ar     1 ZINC000049695141    0.0000
11     C11     0.5859   -7.7929   -1.9009 C.2      1 ZINC000049695141    0.3300
12     N12     0.8230   -9.0522   -1.6241 N.2      1 ZINC000049695141   -0.4800
13     C13     0.0629   -9.8442   -2.4192 C.ar     1 ZINC000049695141    0.0500
14     C14    -0.0764  -11.2303   -2.5422 C.ar     1 ZINC000049695141   -0.0600
15     C15    -0.9528  -11.7496   -3.4674 C.ar     1 ZINC000049695141   -0.1300
16     C16    -1.6996  -10.9089   -4.2802 C.ar     1 ZINC000049695141   -0.1000
17     C17    -1.5746   -9.5396   -4.1728 C.ar     1 ZINC000049695141   -0.1100
18     C18    -0.6970   -8.9969   -3.2454 C.ar     1 ZINC000049695141    0.0500
19     N19    -0.3525   -7.7057   -2.8941 N.pl3    1 ZINC000049695141   -0.4900
20     C20    -0.8881   -6.4736   -3.4783 C.3      1 ZINC000049695141    0.0700
21     C21     0.6451   -5.3787   -1.3121 C.ar     1 ZINC000049695141   -0.1100
22     C22     1.2546   -4.3044   -0.6864 C.ar     1 ZINC000049695141    0.0500
23     N23     0.9466   -2.9630   -0.5651 N.pl3    1 ZINC000049695141   -0.4800
24     C24    -0.2236   -2.2860   -1.1296 C.3      1 ZINC000049695141    0.1100
25     C25    -1.3738   -2.3298   -0.1216 C.3      1 ZINC000049695141    0.0400
26     O26    -2.5151   -1.6694   -0.6723 O.3      1 ZINC000049695141   -0.3100
27     C27    -3.6315   -1.6190    0.1011 C.ar     1 ZINC000049695141    0.1300
28     C28    -3.6267   -2.1883    1.3662 C.ar     1 ZINC000049695141   -0.2000
29     C29    -4.7626   -2.1352    2.1505 C.ar     1 ZINC000049695141   -0.0700
30     C30    -5.9039   -1.5158    1.6755 C.ar     1 ZINC000049695141   -0.1200
31     C31    -7.1418   -1.4599    2.5331 C.3      1 ZINC000049695141   -0.0600
32     C32    -7.1151   -0.1892    3.3848 C.3      1 ZINC000049695141    0.1400
33     C33    -8.3069   -0.1933    4.3443 C.3      1 ZINC000049695141   -0.1900
34     O34    -7.1925    0.9563    2.5340 O.3      1 ZINC000049695141   -0.2800
35     C35    -7.1630    2.1747    3.1354 C.ar     1 ZINC000049695141    0.1300
36     C36    -6.9638    2.2688    4.5051 C.ar     1 ZINC000049695141   -0.2200
37     C37    -6.9337    3.5084    5.1140 C.ar     1 ZINC000049695141   -0.0800
38     C38    -7.1024    4.6548    4.3595 C.ar     1 ZINC000049695141   -0.1500
39     C39    -7.3015    4.5636    2.9943 C.ar     1 ZINC000049695141   -0.0800
40     C40    -7.3263    3.3266    2.3798 C.ar     1 ZINC000049695141   -0.1500
41     C41    -5.8334   -0.1416    4.1760 C.2      1 ZINC000049695141    0.4500
42     O42    -5.8080   -0.5566    5.3105 O.2      1 ZINC000049695141   -0.5000
43     O43    -4.7200    0.3618    3.6204 O.3      1 ZINC000049695141   -0.3300
44     C44    -3.5222    0.3761    4.4410 C.3      1 ZINC000049695141    0.0600
45     C45    -2.3650    0.9811    3.6437 C.3      1 ZINC000049695141   -0.1500
46     C46    -5.9111   -0.9473    0.4151 C.ar     1 ZINC000049695141   -0.0500
47     C47    -4.7761   -0.9931   -0.3710 C.ar     1 ZINC000049695141   -0.1500
48     H48     2.3724    1.0783    2.3507 H        1 ZINC000049695141    0.0600
49     H49     0.8478    1.3633    1.4774 H        1 ZINC000049695141    0.0600
50     H50     0.8169    0.9254    3.2023 H        1 ZINC000049695141    0.0600
51     H51     1.7537   -1.3038    2.6532 H        1 ZINC000049695141    0.0700
52     H52     0.2292   -1.0188    1.7799 H        1 ZINC000049695141    0.0600
53     H53     1.5089   -0.3356   -0.2312 H        1 ZINC000049695141    0.0900
54     H54     3.0335   -0.6206    0.6422 H        1 ZINC000049695141    0.1100
55     H55     4.0955   -6.2190    1.8789 H        1 ZINC000049695141    0.0700
56     H56     4.8789   -6.7901    0.3862 H        1 ZINC000049695141    0.0700
57     H57     4.9129   -5.0600    0.8032 H        1 ZINC000049695141    0.0700
58     H58     2.8745   -7.8012   -0.4771 H        1 ZINC000049695141    0.1500
59     H59     0.5021  -11.8909   -1.9134 H        1 ZINC000049695141    0.1300
60     H60    -1.0599  -12.8201   -3.5618 H        1 ZINC000049695141    0.1300
61     H61    -2.3835  -11.3298   -5.0024 H        1 ZINC000049695141    0.1300
62     H62    -2.1590   -8.8913   -4.8088 H        1 ZINC000049695141    0.1200
63     H63    -1.7060   -6.1040   -2.8598 H        1 ZINC000049695141    0.0800
64     H64    -0.1003   -5.7218   -3.5261 H        1 ZINC000049695141    0.0900
65     H65    -1.2565   -6.6783   -4.4835 H        1 ZINC000049695141    0.0900
66     H66    -0.2776   -5.2391   -1.8557 H        1 ZINC000049695141    0.1300
67     H67     0.0278   -1.2483   -1.3491 H        1 ZINC000049695141    0.1100
68     H68    -0.5261   -2.7886   -2.0482 H        1 ZINC000049695141    0.1000
69     H69    -1.6252   -3.3675    0.0978 H        1 ZINC000049695141    0.0700
70     H70    -1.0712   -1.8272    0.7970 H        1 ZINC000049695141    0.0700
71     H71    -2.7357   -2.6728    1.7374 H        1 ZINC000049695141    0.1200
72     H72    -4.7594   -2.5783    3.1355 H        1 ZINC000049695141    0.1200
73     H73    -8.0256   -1.4512    1.8952 H        1 ZINC000049695141    0.1100
74     H74    -7.1724   -2.3333    3.1844 H        1 ZINC000049695141    0.1000
75     H75    -8.1941   -1.0074    5.0603 H        1 ZINC000049695141    0.0900
76     H76    -8.3473    0.7565    4.8776 H        1 ZINC000049695141    0.0900
77     H77    -9.2283   -0.3319    3.7787 H        1 ZINC000049695141    0.0900
78     H78    -6.8327    1.3736    5.0950 H        1 ZINC000049695141    0.1300
79     H79    -6.7786    3.5822    6.1802 H        1 ZINC000049695141    0.1200
80     H80    -7.0789    5.6230    4.8374 H        1 ZINC000049695141    0.1300
81     H81    -7.4334    5.4605    2.4072 H        1 ZINC000049695141    0.1300
82     H82    -7.4819    3.2559    1.3134 H        1 ZINC000049695141    0.1300
83     H83    -3.7007    0.9753    5.3339 H        1 ZINC000049695141    0.0700
84     H84    -3.2691   -0.6433    4.7321 H        1 ZINC000049695141    0.0700
85     H85    -2.1866    0.3819    2.7508 H        1 ZINC000049695141    0.0600
86     H86    -2.6181    2.0005    3.3526 H        1 ZINC000049695141    0.0700
87     H87    -1.4658    0.9918    4.2598 H        1 ZINC000049695141    0.0800
88     H88    -6.8036   -0.4638    0.0465 H        1 ZINC000049695141    0.1300
89     H89    -4.7822   -0.5489   -1.3554 H        1 ZINC000049695141    0.1300
@<TRIPOS>BOND
1     1     2     1
2     1     48    1
3     1     49    1
4     1     50    1
5     2     3     1
6     2     51    1
7     2     52    1
8     3     4     1
9     3     53    1
10    3     54    1
11    4     23    1
12    4     5     2
13    5     6     1
14    6     22    ar
15    6     7     ar
16    7     8     1
17    7     9     ar
18    8     55    1
19    8     56    1
20    8     57    1
21    9     10    ar
22    9     58    1
23    10    11    1
24    10    21    ar
25    11    19    1
26    11    12    2
27    12    13    1
28    13    18    ar
29    13    14    ar
30    14    15    ar
31    14    59    1
32    15    16    ar
33    15    60    1
34    16    17    ar
35    16    61    1
36    17    18    ar
37    17    62    1
38    18    19    1
39    19    20    1
40    20    63    1
41    20    64    1
42    20    65    1
43    21    22    ar
44    21    66    1
45    22    23    1
46    23    24    1
47    24    25    1
48    24    67    1
49    24    68    1
50    25    26    1
51    25    69    1
52    25    70    1
53    26    27    1
54    27    47    ar
55    27    28    ar
56    28    29    ar
57    28    71    1
58    29    30    ar
59    29    72    1
60    30    31    1
61    30    46    ar
62    31    32    1
63    31    73    1
64    31    74    1
65    32    33    1
66    32    34    1
67    32    41    1
68    33    75    1
69    33    76    1
70    33    77    1
71    34    35    1
72    35    40    ar
73    35    36    ar
74    36    37    ar
75    36    78    1
76    37    38    ar
77    37    79    1
78    38    39    ar
79    38    80    1
80    39    40    ar
81    39    81    1
82    40    82    1
83    41    42    2
84    41    43    1
85    43    44    1
86    44    45    1
87    44    83    1
88    44    84    1
89    45    85    1
90    45    86    1
91    45    87    1
92    46    47    ar
93    46    88    1
94    47    89    1
@<TRIPOS>SUBSTRUCTURE
1   ZINC000049695141 1     RESIDUE    1   A     ZIN   1


@<TRIPOS>MOLECULE
O=C(O)C1=CC=CC=C1C2=CC=C(C=C2)CN3C4=CC(C5=NC6=CC=CC=C6N5C)=CC(C)=C4N=C3CCC
68    73    1     0     0
SMALL
USER_CHARGES
@<TRIPOS>ATOM
1      C1     -1.3678    0.1344    4.9220 C.3      1 ZINC000001530886   -0.1500
2      C2     -1.0194   -1.2898    4.4846 C.3      1 ZINC000001530886   -0.1200
3      C3     -2.2969   -2.0230    4.0707 C.3      1 ZINC000001530886   -0.0500
4      C4     -1.9424   -3.3860    3.5343 C.2      1 ZINC000001530886    0.3000
5      N5     -1.5807   -3.6336    2.3087 N.2      1 ZINC000001530886   -0.4900
6      C6     -1.3346   -4.9598    2.1636 C.ar     1 ZINC000001530886    0.0700
7      C7     -0.9262   -5.7494    1.0832 C.ar     1 ZINC000001530886   -0.0300
8      C8     -0.6715   -5.1142   -0.2595 C.3      1 ZINC000001530886   -0.1100
9      C9     -0.7579   -7.0923    1.2437 C.ar     1 ZINC000001530886   -0.1300
10     C10    -0.9912   -7.6949    2.4861 C.ar     1 ZINC000001530886   -0.0200
11     C11    -0.8047   -9.1523    2.6455 C.2      1 ZINC000001530886    0.3400
12     N12    -1.3333   -9.8803    3.5990 N.2      1 ZINC000001530886   -0.4800
13     C13    -0.9581  -11.1736    3.4456 C.ar     1 ZINC000001530886    0.0500
14     C14    -1.2274  -12.3432    4.1636 C.ar     1 ZINC000001530886   -0.0600
15     C15    -0.6862  -13.5389    3.7499 C.ar     1 ZINC000001530886   -0.1300
16     C16     0.1254  -13.5939    2.6259 C.ar     1 ZINC000001530886   -0.1000
17     C17     0.4019  -12.4504    1.9062 C.ar     1 ZINC000001530886   -0.1100
18     C18    -0.1351  -11.2355    2.3068 C.ar     1 ZINC000001530886    0.0500
19     N19    -0.0587   -9.9461    1.8161 N.pl3    1 ZINC000001530886   -0.4900
20     C20     0.6851   -9.5092    0.6319 C.3      1 ZINC000001530886    0.0700
21     C21    -1.3983   -6.9235    3.5722 C.ar     1 ZINC000001530886   -0.0500
22     C22    -1.5703   -5.5586    3.4148 C.ar     1 ZINC000001530886    0.0500
23     N23    -1.9483   -4.5346    4.2618 N.pl3    1 ZINC000001530886   -0.4700
24     C24    -2.2936   -4.6630    5.6797 C.3      1 ZINC000001530886    0.1600
25     C25    -3.7453   -5.0456    5.8106 C.ar     1 ZINC000001530886   -0.1400
26     C26    -4.7158   -4.0607    5.8569 C.ar     1 ZINC000001530886   -0.1000
27     C27    -6.0467   -4.4048    5.9767 C.ar     1 ZINC000001530886   -0.1100
28     C28    -6.4127   -5.7484    6.0506 C.ar     1 ZINC000001530886    0.0000
29     C29    -7.8400   -6.1245    6.1788 C.ar     1 ZINC000001530886   -0.0500
30     C30    -8.6207   -5.5749    7.1910 C.ar     1 ZINC000001530886   -0.1100
31     C31    -9.9507   -5.9276    7.3068 C.ar     1 ZINC000001530886   -0.1400
32     C32   -10.5180   -6.8284    6.4206 C.ar     1 ZINC000001530886   -0.1300
33     C33    -9.7617   -7.3847    5.4103 C.ar     1 ZINC000001530886   -0.1000
34     C34    -8.4165   -7.0360    5.2735 C.ar     1 ZINC000001530886   -0.1000
35     C35    -7.6035   -7.6261    4.1965 C.2      1 ZINC000001530886    0.5200
36     O36    -6.9887   -6.9007    3.4268 O.co2    1 ZINC000001530886   -0.6700
37     O37    -7.5429   -8.8414    4.0716 O.co2    1 ZINC000001530886   -0.6900
38     C38    -5.4299   -6.7367    6.0029 C.ar     1 ZINC000001530886   -0.0800
39     C39    -4.1026   -6.3803    5.8782 C.ar     1 ZINC000001530886   -0.0900
40     H40    -0.4577    0.6568    5.2169 H        1 ZINC000001530886    0.0600
41     H41    -1.8386    0.6640    4.0938 H        1 ZINC000001530886    0.0600
42     H42    -2.0552    0.0970    5.7671 H        1 ZINC000001530886    0.0600
43     H43    -0.3319   -1.2524    3.6396 H        1 ZINC000001530886    0.0700
44     H44    -0.5486   -1.8193    5.3128 H        1 ZINC000001530886    0.0600
45     H45    -2.9500   -2.1319    4.9366 H        1 ZINC000001530886    0.0900
46     H46    -2.8102   -1.4507    3.2981 H        1 ZINC000001530886    0.1000
47     H47     0.3724   -4.8073   -0.3241 H        1 ZINC000001530886    0.0700
48     H48    -0.8882   -5.8339   -1.0489 H        1 ZINC000001530886    0.0600
49     H49    -1.3146   -4.2419   -0.3765 H        1 ZINC000001530886    0.0700
50     H50    -0.4425   -7.6966    0.4060 H        1 ZINC000001530886    0.1300
51     H51    -1.8577  -12.3080    5.0399 H        1 ZINC000001530886    0.1300
52     H52    -0.8946  -14.4417    4.3049 H        1 ZINC000001530886    0.1300
53     H53     0.5439  -14.5389    2.3125 H        1 ZINC000001530886    0.1300
54     H54     1.0345  -12.5006    1.0323 H        1 ZINC000001530886    0.1200
55     H55     0.0104   -9.4586   -0.2227 H        1 ZINC000001530886    0.0800
56     H56     1.1139   -8.5240    0.8152 H        1 ZINC000001530886    0.0900
57     H57     1.4843  -10.2201    0.4222 H        1 ZINC000001530886    0.0800
58     H58    -1.5789   -7.3870    4.5308 H        1 ZINC000001530886    0.1300
59     H59    -1.6722   -5.4333    6.1367 H        1 ZINC000001530886    0.1000
60     H60    -2.1217   -3.7116    6.1831 H        1 ZINC000001530886    0.1000
61     H61    -4.4311   -3.0205    5.7996 H        1 ZINC000001530886    0.1200
62     H62    -6.8034   -3.6351    6.0134 H        1 ZINC000001530886    0.1200
63     H63    -8.1861   -4.8723    7.8866 H        1 ZINC000001530886    0.1200
64     H64   -10.5527   -5.4984    8.0940 H        1 ZINC000001530886    0.1100
65     H65   -11.5592   -7.0972    6.5217 H        1 ZINC000001530886    0.1200
66     H66   -10.2107   -8.0865    4.7230 H        1 ZINC000001530886    0.1200
67     H67    -5.7073   -7.7789    6.0601 H        1 ZINC000001530886    0.1200
68     H68    -3.3406   -7.1448    5.8408 H        1 ZINC000001530886    0.1200
@<TRIPOS>BOND
1     1     2     1
2     1     40    1
3     1     41    1
4     1     42    1
5     2     3     1
6     2     43    1
7     2     44    1
8     3     4     1
9     3     45    1
10    3     46    1
11    4     23    1
12    4     5     2
13    5     6     1
14    6     22    ar
15    6     7     ar
16    7     8     1
17    7     9     ar
18    8     47    1
19    8     48    1
20    8     49    1
21    9     10    ar
22    9     50    1
23    10    11    1
24    10    21    ar
25    11    19    1
26    11    12    2
27    12    13    1
28    13    18    ar
29    13    14    ar
30    14    15    ar
31    14    51    1
32    15    16    ar
33    15    52    1
34    16    17    ar
35    16    53    1
36    17    18    ar
37    17    54    1
38    18    19    1
39    19    20    1
40    20    55    1
41    20    56    1
42    20    57    1
43    21    22    ar
44    21    58    1
45    22    23    1
46    23    24    1
47    24    25    1
48    24    59    1
49    24    60    1
50    25    39    ar
51    25    26    ar
52    26    27    ar
53    26    61    1
54    27    28    ar
55    27    62    1
56    28    29    1
57    28    38    ar
58    29    34    ar
59    29    30    ar
60    30    31    ar
61    30    63    1
62    31    32    ar
63    31    64    1
64    32    33    ar
65    32    65    1
66    33    34    ar
67    33    66    1
68    34    35    1
69    35    36    ar
70    35    37    ar
71    38    39    ar
72    38    67    1
73    39    68    1
@<TRIPOS>SUBSTRUCTURE
1   ZINC000001530886 1     RESIDUE    1   A     ZIN   1


@<TRIPOS>MOLECULE
CCC1=NC2=C(C(N(CC3=C(C#N)C=CC=C3)C=C2C)=O)N1[C@H]4CCC5=C4C=CC(C6=CC=CC=C6C7=NNN=N7)=C5
70    76    1     0     0
SMALL
USER_CHARGES
@<TRIPOS>ATOM
1      C1      0.9094   -1.5143    0.2772 C.3      1 ZINC000095582228   -0.1400
2      C2      0.0796   -0.2569    0.0105 C.3      1 ZINC000095582228   -0.0500
3      C3     -1.3754   -0.6309   -0.1076 C.2      1 ZINC000095582228    0.2900
4      N4     -2.1836   -0.8233    0.8999 N.2      1 ZINC000095582228   -0.4800
5      C5     -3.4050   -1.1415    0.4444 C.2      1 ZINC000095582228    0.1300
6      C6     -3.3367   -1.1433   -0.9532 C.2      1 ZINC000095582228   -0.1100
7      C7     -4.4909   -1.4482   -1.6939 C.2      1 ZINC000095582228    0.5800
8      O8     -4.4466   -1.4541   -2.9133 O.2      1 ZINC000095582228   -0.5500
9      N9     -5.6455   -1.7344   -1.0635 N.am     1 ZINC000095582228   -0.5000
10     C10    -6.8322   -2.0484   -1.8632 C.3      1 ZINC000095582228    0.1400
11     C11    -6.8876   -3.5326   -2.1184 C.ar     1 ZINC000095582228   -0.0700
12     C12    -6.4581   -4.0428   -3.3257 C.ar     1 ZINC000095582228   -0.0900
13     C13    -6.5083   -5.4055   -3.5618 C.ar     1 ZINC000095582228   -0.0900
14     C14    -6.9893   -6.2650   -2.5904 C.ar     1 ZINC000095582228   -0.1100
15     C15    -7.4222   -5.7681   -1.3782 C.ar     1 ZINC000095582228   -0.0700
16     C16    -7.3685   -4.3951   -1.1310 C.ar     1 ZINC000095582228   -0.0200
17     C17    -7.8161   -3.8724    0.1248 C.1      1 ZINC000095582228    0.2500
18     N18    -8.1711   -3.4577    1.1210 N.1      1 ZINC000095582228   -0.4100
19     C19    -5.7444   -1.7414    0.2968 C.2      1 ZINC000095582228    0.0800
20     C20    -4.6836   -1.4585    1.0770 C.2      1 ZINC000095582228   -0.1100
21     C21    -4.8123   -1.4720    2.5785 C.3      1 ZINC000095582228   -0.0900
22     N22    -2.0370   -0.8106   -1.2704 N.pl3    1 ZINC000095582228   -0.4100
23     C23    -1.4764   -0.6835   -2.6179 C.3      1 ZINC000095582228    0.1700
24     H24    -2.2329   -0.9218   -3.3656 H        1 ZINC000095582228    0.1300
25     C25    -0.9350    0.7445   -2.8402 C.3      1 ZINC000095582228   -0.1300
26     C26     0.2927    0.4972   -3.7421 C.3      1 ZINC000095582228   -0.0800
27     C27     0.7422   -0.9125   -3.4217 C.ar     1 ZINC000095582228   -0.0900
28     C28     1.9435   -1.5472   -3.6768 C.ar     1 ZINC000095582228   -0.0800
29     C29     2.1323   -2.8702   -3.2835 C.ar     1 ZINC000095582228   -0.0500
30     C30     3.4204   -3.5517   -3.5555 C.ar     1 ZINC000095582228    0.0000
31     C31     3.9765   -3.5138   -4.8310 C.ar     1 ZINC000095582228   -0.1100
32     C32     5.1765   -4.1495   -5.0799 C.ar     1 ZINC000095582228   -0.1000
33     C33     5.8327   -4.8270   -4.0669 C.ar     1 ZINC000095582228   -0.1200
34     C34     5.2947   -4.8743   -2.7962 C.ar     1 ZINC000095582228   -0.0800
35     C35     4.0889   -4.2340   -2.5269 C.ar     1 ZINC000095582228   -0.0100
36     C36     3.5075   -4.2818   -1.1632 C.2      1 ZINC000095582228    0.2100
37     N37     4.0204   -4.8854   -0.1089 N.2      1 ZINC000095582228   -0.2900
38     N38     3.2186   -4.6967    0.8822 N.pl3    1 ZINC000095582228   -0.2300
39     N39     2.2144   -3.9932    0.4900 N.2      1 ZINC000095582228   -0.0500
40     N40     2.3610   -3.7147   -0.7609 N.2      1 ZINC000095582228   -0.2500
41     C41     1.1041   -3.5497   -2.6324 C.ar     1 ZINC000095582228   -0.0300
42     C42    -0.0908   -2.9083   -2.3828 C.ar     1 ZINC000095582228   -0.0900
43     C43    -0.2768   -1.5938   -2.7758 C.ar     1 ZINC000095582228   -0.1000
44     H44     1.9698   -1.2647    0.2395 H        1 ZINC000095582228    0.0500
45     H45     0.6640   -1.9092    1.2631 H        1 ZINC000095582228    0.0600
46     H46     0.6856   -2.2649   -0.4809 H        1 ZINC000095582228    0.0900
47     H47     0.2087    0.4451    0.8343 H        1 ZINC000095582228    0.0900
48     H48     0.4119    0.2075   -0.9180 H        1 ZINC000095582228    0.0900
49     H49    -7.7268   -1.7390   -1.3228 H        1 ZINC000095582228    0.1000
50     H50    -6.7804   -1.5179   -2.8140 H        1 ZINC000095582228    0.1200
51     H51    -6.0820   -3.3774   -4.0887 H        1 ZINC000095582228    0.1400
52     H52    -6.1707   -5.7997   -4.5089 H        1 ZINC000095582228    0.1300
53     H53    -7.0264   -7.3273   -2.7814 H        1 ZINC000095582228    0.1400
54     H54    -7.7978   -6.4402   -0.6208 H        1 ZINC000095582228    0.1400
55     H55    -6.6923   -1.9774    0.7574 H        1 ZINC000095582228    0.1600
56     H56    -5.8347   -1.7312    2.8532 H        1 ZINC000095582228    0.0600
57     H57    -4.1260   -2.2092    2.9953 H        1 ZINC000095582228    0.0700
58     H58    -4.5691   -0.4854    2.9729 H        1 ZINC000095582228    0.0700
59     H59    -1.6727    1.3633   -3.3512 H        1 ZINC000095582228    0.0900
60     H60    -0.6363    1.1971   -1.8947 H        1 ZINC000095582228    0.0900
61     H61     0.0123    0.5753   -4.7925 H        1 ZINC000095582228    0.0900
62     H62     1.0841    1.2091   -3.5072 H        1 ZINC000095582228    0.0800
63     H63     2.7371   -1.0164   -4.1816 H        1 ZINC000095582228    0.1200
64     H64     3.4691   -2.9874   -5.6260 H        1 ZINC000095582228    0.1300
65     H65     5.6054   -4.1182   -6.0706 H        1 ZINC000095582228    0.1300
66     H66     6.7706   -5.3218   -4.2717 H        1 ZINC000095582228    0.1300
67     H67     5.8118   -5.4047   -2.0102 H        1 ZINC000095582228    0.1400
68     H68     3.3510   -5.0323    1.7826 H        1 ZINC000095582228    0.4800
69     H69     1.2428   -4.5756   -2.3247 H        1 ZINC000095582228    0.1200
70     H70    -0.8875   -3.4348   -1.8783 H        1 ZINC000095582228    0.1100
@<TRIPOS>BOND
1     1     2     1
2     1     44    1
3     1     45    1
4     1     46    1
5     2     3     1
6     2     47    1
7     2     48    1
8     3     22    1
9     3     4     2
10    4     5     1
11    5     20    1
12    5     6     2
13    6     7     1
14    6     22    1
15    7     8     2
16    7     9     am
17    9     10    1
18    9     19    1
19    10    11    1
20    10    49    1
21    10    50    1
22    11    16    ar
23    11    12    ar
24    12    13    ar
25    12    51    1
26    13    14    ar
27    13    52    1
28    14    15    ar
29    14    53    1
30    15    16    ar
31    15    54    1
32    16    17    1
33    17    18    3
34    19    20    2
35    19    55    1
36    20    21    1
37    21    56    1
38    21    57    1
39    21    58    1
40    22    23    1
41    23    24    1
42    23    43    1
43    23    25    1
44    25    26    1
45    25    59    1
46    25    60    1
47    26    27    1
48    26    61    1
49    26    62    1
50    27    43    ar
51    27    28    ar
52    28    29    ar
53    28    63    1
54    29    30    1
55    29    41    ar
56    30    35    ar
57    30    31    ar
58    31    32    ar
59    31    64    1
60    32    33    ar
61    32    65    1
62    33    34    ar
63    33    66    1
64    34    35    ar
65    34    67    1
66    35    36    1
67    36    40    1
68    36    37    2
69    37    38    1
70    38    39    1
71    38    68    1
72    39    40    2
73    41    42    ar
74    41    69    1
75    42    43    ar
76    42    70    1
@<TRIPOS>SUBSTRUCTURE
1   ZINC000095582228 1     RESIDUE    1   A     ZIN   1


@<TRIPOS>MOLECULE
COC1=C(C=C(C=C1)CC2C(=O)NC(=O)S2)C(=O)NCC3=CC=C(C=C3)C(F)(F)F
46    48    1     0     0
SMALL
USER_CHARGES
@<TRIPOS>ATOM
1      C1     -0.0173    1.4248    0.0099 C.3      1 ZINC000001486389    0.0200
2      O2      0.0021   -0.0041    0.0020 O.3      1 ZINC000001486389   -0.2800
3      C3      0.6047   -0.6060   -1.0538 C.ar     1 ZINC000001486389    0.1800
4      C4      1.1722    0.1595   -2.0611 C.ar     1 ZINC000001486389   -0.2200
5      C5      1.7849   -0.4547   -3.1356 C.ar     1 ZINC000001486389   -0.0200
6      C6      1.8382   -1.8364   -3.2160 C.ar     1 ZINC000001486389   -0.1200
7      C7      2.5098   -2.4939   -4.3940 C.3      1 ZINC000001486389   -0.0400
8      C8      3.9919   -2.7094   -4.0811 C.3      1 ZINC000001486389   -0.0900
9      H9      4.1112   -3.2631   -3.1498 H        1 ZINC000001486389    0.1100
10     S10     4.8731   -1.1136   -4.0005 S.3      1 ZINC000001486389   -0.4000
11     C11     5.9612   -1.4959   -5.3468 C.2      1 ZINC000001486389    0.5800
12     O12     6.8320   -0.7740   -5.7926 O.2      1 ZINC000001486389   -0.5100
13     N13     5.6523   -2.7189   -5.7829 N.pl3    1 ZINC000001486389   -0.7200
14     C14     4.6808   -3.4262   -5.2217 C.2      1 ZINC000001486389    0.5200
15     O15     4.3737   -4.5393   -5.5914 O.2      1 ZINC000001486389   -0.5400
16     C16     1.2800   -2.6127   -2.2233 C.ar     1 ZINC000001486389   -0.0400
17     C17     0.6615   -2.0046   -1.1286 C.ar     1 ZINC000001486389   -0.1800
18     C18     0.0625   -2.8296   -0.0621 C.2      1 ZINC000001486389    0.5700
19     O19    -0.4751   -2.2965    0.8893 O.2      1 ZINC000001486389   -0.5200
20     N20     0.1111   -4.1741   -0.1426 N.am     1 ZINC000001486389   -0.7300
21     C21    -0.4837   -4.9932    0.9164 C.3      1 ZINC000001486389    0.1600
22     C22    -0.2954   -6.4520    0.5886 C.ar     1 ZINC000001486389   -0.0800
23     C23    -1.2492   -7.1222   -0.1543 C.ar     1 ZINC000001486389   -0.1000
24     C24    -1.0765   -8.4604   -0.4550 C.ar     1 ZINC000001486389   -0.0700
25     C25     0.0503   -9.1282   -0.0131 C.ar     1 ZINC000001486389   -0.1800
26     C26     0.2383  -10.5872   -0.3404 C.3      1 ZINC000001486389    0.5100
27     F27     0.9277  -10.7082   -1.5518 F        1 ZINC000001486389   -0.1700
28     F28     0.9738  -11.2026    0.6782 F        1 ZINC000001486389   -0.1800
29     F29    -1.0119  -11.2051   -0.4516 F        1 ZINC000001486389   -0.1800
30     C30     1.0048   -8.4577    0.7287 C.ar     1 ZINC000001486389   -0.0700
31     C31     0.8339   -7.1186    1.0261 C.ar     1 ZINC000001486389   -0.1000
32     H32     1.0053    1.8021    0.0021 H        1 ZINC000001486389    0.0600
33     H33    -0.5445    1.7859   -0.8732 H        1 ZINC000001486389    0.0500
34     H34    -0.5275    1.7763    0.9067 H        1 ZINC000001486389    0.1000
35     H35     1.1347    1.2374   -2.0055 H        1 ZINC000001486389    0.1300
36     H36     2.2249    0.1459   -3.9180 H        1 ZINC000001486389    0.1400
37     H37     2.0366   -3.4557   -4.5918 H        1 ZINC000001486389    0.0900
38     H38     2.4130   -1.8541   -5.2711 H        1 ZINC000001486389    0.0800
39     H39     1.3239   -3.6898   -2.2901 H        1 ZINC000001486389    0.1300
40     H40     0.5400   -4.5993   -0.9016 H        1 ZINC000001486389    0.4000
41     H41     0.0022   -4.7685    1.8659 H        1 ZINC000001486389    0.0800
42     H42    -1.5484   -4.7723    0.9919 H        1 ZINC000001486389    0.0800
43     H43    -2.1295   -6.6005   -0.4995 H        1 ZINC000001486389    0.1400
44     H44    -1.8220   -8.9842   -1.0348 H        1 ZINC000001486389    0.1400
45     H45     1.8853   -8.9794    1.0736 H        1 ZINC000001486389    0.1400
46     H46     1.5796   -6.5947    1.6056 H        1 ZINC000001486389    0.1400
@<TRIPOS>BOND
1     1     2     1
2     1     32    1
3     1     33    1
4     1     34    1
5     2     3     1
6     3     17    ar
7     3     4     ar
8     4     5     ar
9     4     35    1
10    5     6     ar
11    5     36    1
12    6     7     1
13    6     16    ar
14    7     8     1
15    7     37    1
16    7     38    1
17    8     9     1
18    8     14    1
19    8     10    1
20    10    11    1
21    11    12    2
22    11    13    1
23    13    14    1
24    14    15    2
25    16    17    ar
26    16    39    1
27    17    18    1
28    18    19    2
29    18    20    am
30    20    21    1
31    20    40    1
32    21    22    1
33    21    41    1
34    21    42    1
35    22    31    ar
36    22    23    ar
37    23    24    ar
38    23    43    1
39    24    25    ar
40    24    44    1
41    25    26    1
42    25    30    ar
43    26    27    1
44    26    28    1
45    26    29    1
46    30    31    ar
47    30    45    1
48    31    46    1
@<TRIPOS>SUBSTRUCTURE
1   ZINC000001486389 1     RESIDUE    1   A     ZIN   1


@<TRIPOS>MOLECULE
BrC(C=C1/C=C2C(NC(S\2)=O)=O)=CC=C1OCC3=CC(C(F)(F)F)=CC(C(F)(F)F)=C3
41    43    1     0     0
SMALL
USER_CHARGES
@<TRIPOS>ATOM
1      O1      0.0741    0.1573    1.3328 O.2      1 ZINC000049709664   -0.4300
2      C2      0.0468    1.3167    0.9659 C.2      1 ZINC000049709664    0.5200
3      N3     -1.0152    1.9775    0.4911 N.am     1 ZINC000049709664   -0.6800
4      C4     -0.8873    3.2436    0.1309 C.2      1 ZINC000049709664    0.5700
5      O5     -1.8164    3.8963   -0.3072 O.2      1 ZINC000049709664   -0.4700
6      C6      0.4588    3.8024    0.2997 C.2      1 ZINC000049709664   -0.2400
7      C7      0.8820    5.0608    0.0174 C.2      1 ZINC000049709664    0.0900
8      C8      2.3108    5.3889    0.0931 C.ar     1 ZINC000049709664   -0.1200
9      C9      3.2699    4.3703    0.0614 C.ar     1 ZINC000049709664   -0.0300
10     C10     4.6100    4.6867    0.1330 C.ar     1 ZINC000049709664   -0.1300
11     Br11    5.9057    3.3101    0.0902 Br       1 ZINC000049709664   -0.0300
12     C12     5.0117    6.0092    0.2358 C.ar     1 ZINC000049709664   -0.0200
13     C13     4.0750    7.0250    0.2681 C.ar     1 ZINC000049709664   -0.2100
14     C14     2.7243    6.7279    0.1920 C.ar     1 ZINC000049709664    0.1900
15     O15     1.8041    7.7251    0.2232 O.3      1 ZINC000049709664   -0.3000
16     C16     2.2987    9.0610    0.3361 C.3      1 ZINC000049709664    0.1000
17     C17     1.1409   10.0254    0.3552 C.ar     1 ZINC000049709664   -0.1000
18     C18     0.6553   10.5460   -0.8297 C.ar     1 ZINC000049709664   -0.0100
19     C19    -0.4068   11.4307   -0.8122 C.ar     1 ZINC000049709664   -0.1900
20     C20    -0.9358   11.9986   -2.1039 C.3      1 ZINC000049709664    0.5100
21     F21    -1.9423   11.1645   -2.6024 F        1 ZINC000049709664   -0.1700
22     F22    -1.4600   13.2748   -1.8722 F        1 ZINC000049709664   -0.1700
23     F23     0.1037   12.0836   -3.0363 F        1 ZINC000049709664   -0.1700
24     C24    -0.9838   11.7940    0.3903 C.ar     1 ZINC000049709664   -0.0100
25     C25    -0.4985   11.2731    1.5752 C.ar     1 ZINC000049709664   -0.1900
26     C26    -1.1273   11.6696    2.8861 C.3      1 ZINC000049709664    0.5100
27     F27    -2.1743   12.5666    2.6487 F        1 ZINC000049709664   -0.1700
28     F28    -1.6255   10.5306    3.5277 F        1 ZINC000049709664   -0.1700
29     F29    -0.1658   12.2797    3.6988 F        1 ZINC000049709664   -0.1700
30     C30     0.5608   10.3851    1.5573 C.ar     1 ZINC000049709664   -0.0100
31     S31     1.4044    2.4559    0.9653 S.3      1 ZINC000049709664    0.0000
32     H32    -1.8727    1.5311    0.4113 H        1 ZINC000049709664    0.4300
33     H33     0.1675    5.8206   -0.2628 H        1 ZINC000049709664    0.1700
34     H34     2.9611    3.3385   -0.0186 H        1 ZINC000049709664    0.1600
35     H35     6.0636    6.2475    0.2913 H        1 ZINC000049709664    0.1500
36     H36     4.3971    8.0527    0.3487 H        1 ZINC000049709664    0.1500
37     H37     2.8696    9.1603    1.2593 H        1 ZINC000049709664    0.0900
38     H38     2.9426    9.2832   -0.5149 H        1 ZINC000049709664    0.0900
39     H39     1.1059   10.2619   -1.7692 H        1 ZINC000049709664    0.1500
40     H40    -1.8136   12.4852    0.4040 H        1 ZINC000049709664    0.1600
41     H41     0.9399    9.9781    2.4830 H        1 ZINC000049709664    0.1500
@<TRIPOS>BOND
1     1     2     2
2     2     31    1
3     2     3     am
4     3     4     am
5     3     32    1
6     4     5     2
7     4     6     1
8     6     7     2
9     6     31    1
10    7     8     1
11    7     33    1
12    8     14    ar
13    8     9     ar
14    9     10    ar
15    9     34    1
16    10    11    1
17    10    12    ar
18    12    13    ar
19    12    35    1
20    13    14    ar
21    13    36    1
22    14    15    1
23    15    16    1
24    16    17    1
25    16    37    1
26    16    38    1
27    17    30    ar
28    17    18    ar
29    18    19    ar
30    18    39    1
31    19    20    1
32    19    24    ar
33    20    21    1
34    20    22    1
35    20    23    1
36    24    25    ar
37    24    40    1
38    25    26    1
39    25    30    ar
40    26    27    1
41    26    28    1
42    26    29    1
43    30    41    1
@<TRIPOS>SUBSTRUCTURE
1   ZINC000049709664 1     RESIDUE    1   A     ZIN   1


@<TRIPOS>MOLECULE
BrC(C=C1/C=C2C(NC(S\2)=O)=O)=C(OS(C3=CC=C(C)C=C3)(=O)=O)C=C1OCC4=CC=C(C(F)(F)F)C=C4
55    58    1     0     0
SMALL
USER_CHARGES
@<TRIPOS>ATOM
1      C1     -0.6669    1.3625    0.4535 C.3      1 ZINC000072110046   -0.1300
2      C2     -0.5467   -0.1383    0.3897 C.ar     1 ZINC000072110046   -0.0200
3      C3     -0.5646   -0.7818   -0.8337 C.ar     1 ZINC000072110046   -0.1400
4      C4     -0.4544   -2.1585   -0.8922 C.ar     1 ZINC000072110046   -0.0100
5      C5     -0.3259   -2.8917    0.2726 C.ar     1 ZINC000072110046   -0.7100
6      S6     -0.1860   -4.6466    0.1980 S.o2     1 ZINC000072110046    2.6700
7      O7     -0.6189   -5.1376    1.4593 O.2      1 ZINC000072110046   -0.9300
8      O8     -0.7727   -5.0439   -1.0337 O.2      1 ZINC000072110046   -0.9100
9      O9      1.2962   -4.9764    0.0942 O.3      1 ZINC000072110046   -0.6500
10     C10     1.9779   -4.8278    1.2589 C.ar     1 ZINC000072110046    0.1600
11     C11     2.5547   -3.6049    1.5700 C.ar     1 ZINC000072110046   -0.2100
12     C12     3.2504   -3.4480    2.7554 C.ar     1 ZINC000072110046    0.2000
13     O13     3.8150   -2.2521    3.0607 O.3      1 ZINC000072110046   -0.2900
14     C14     3.6519   -1.1965    2.1114 C.3      1 ZINC000072110046    0.0900
15     C15     4.3405    0.0448    2.6172 C.ar     1 ZINC000072110046   -0.0700
16     C16     3.6483    0.9481    3.4019 C.ar     1 ZINC000072110046   -0.0900
17     C17     4.2800    2.0868    3.8659 C.ar     1 ZINC000072110046   -0.0700
18     C18     5.6040    2.3219    3.5457 C.ar     1 ZINC000072110046   -0.1700
19     C19     6.2925    3.5635    4.0511 C.3      1 ZINC000072110046    0.5100
20     F20     6.8832    3.2972    5.2910 F        1 ZINC000072110046   -0.1700
21     F21     7.2788    3.9539    3.1390 F        1 ZINC000072110046   -0.1700
22     F22     5.3547    4.5920    4.1926 F        1 ZINC000072110046   -0.1800
23     C23     6.2966    1.4179    2.7621 C.ar     1 ZINC000072110046   -0.0700
24     C24     5.6661    0.2773    2.3013 C.ar     1 ZINC000072110046   -0.0900
25     C25     3.3700   -4.5317    3.6429 C.ar     1 ZINC000072110046   -0.1000
26     C26     4.1048   -4.3751    4.9017 C.2      1 ZINC000072110046    0.0800
27     C27     4.5503   -5.4717    5.5693 C.2      1 ZINC000072110046   -0.2300
28     S28     4.5449   -7.1600    5.0218 S.3      1 ZINC000072110046    0.0000
29     C29     5.2838   -7.7911    6.5040 C.2      1 ZINC000072110046    0.5200
30     O30     5.5505   -8.9536    6.7427 O.2      1 ZINC000072110046   -0.4200
31     N31     5.4920   -6.7435    7.3100 N.am     1 ZINC000072110046   -0.6700
32     C32     5.1515   -5.5317    6.9040 C.2      1 ZINC000072110046    0.5700
33     O33     5.3162   -4.5411    7.5922 O.2      1 ZINC000072110046   -0.4600
34     C34     2.7830   -5.7620    3.3186 C.ar     1 ZINC000072110046   -0.0200
35     C35     2.0899   -5.9019    2.1381 C.ar     1 ZINC000072110046   -0.1100
36     Br36    1.2982   -7.5628    1.7016 Br       1 ZINC000072110046    0.0000
37     C37    -0.3066   -2.2482    1.4958 C.ar     1 ZINC000072110046   -0.0100
38     C38    -0.4130   -0.8711    1.5541 C.ar     1 ZINC000072110046   -0.1500
39     H39     0.3263    1.8089    0.4047 H        1 ZINC000072110046    0.0800
40     H40    -1.2654    1.7151   -0.3865 H        1 ZINC000072110046    0.0800
41     H41    -1.1484    1.6490    1.3884 H        1 ZINC000072110046    0.0800
42     H42    -0.6650   -0.2089   -1.7437 H        1 ZINC000072110046    0.1400
43     H43    -0.4691   -2.6612   -1.8479 H        1 ZINC000072110046    0.1400
44     H44     2.4607   -2.7746    0.8857 H        1 ZINC000072110046    0.1600
45     H45     4.0913   -1.4933    1.1590 H        1 ZINC000072110046    0.0900
46     H46     2.5901   -0.9925    1.9738 H        1 ZINC000072110046    0.0900
47     H47     2.6139    0.7645    3.6522 H        1 ZINC000072110046    0.1400
48     H48     3.7390    2.7929    4.4784 H        1 ZINC000072110046    0.1400
49     H49     7.3312    1.6014    2.5122 H        1 ZINC000072110046    0.1400
50     H50     6.2072   -0.4290    1.6891 H        1 ZINC000072110046    0.1400
51     H51     4.2921   -3.3883    5.2986 H        1 ZINC000072110046    0.1700
52     H52     5.8935   -6.8713    8.1837 H        1 ZINC000072110046    0.4300
53     H53     2.8716   -6.5985    3.9960 H        1 ZINC000072110046    0.1700
54     H54    -0.2059   -2.8210    2.4058 H        1 ZINC000072110046    0.1400
55     H55    -0.3979   -0.3684    2.5098 H        1 ZINC000072110046    0.1400
@<TRIPOS>BOND
1     1     2     1
2     1     39    1
3     1     40    1
4     1     41    1
5     2     38    ar
6     2     3     ar
7     3     4     ar
8     3     42    1
9     4     5     ar
10    4     43    1
11    5     6     1
12    5     37    ar
13    6     7     2
14    6     8     2
15    6     9     1
16    9     10    1
17    10    35    ar
18    10    11    ar
19    11    12    ar
20    11    44    1
21    12    13    1
22    12    25    ar
23    13    14    1
24    14    15    1
25    14    45    1
26    14    46    1
27    15    24    ar
28    15    16    ar
29    16    17    ar
30    16    47    1
31    17    18    ar
32    17    48    1
33    18    19    1
34    18    23    ar
35    19    20    1
36    19    21    1
37    19    22    1
38    23    24    ar
39    23    49    1
40    24    50    1
41    25    26    1
42    25    34    ar
43    26    27    2
44    26    51    1
45    27    32    1
46    27    28    1
47    28    29    1
48    29    30    2
49    29    31    am
50    31    32    am
51    31    52    1
52    32    33    2
53    34    35    ar
54    34    53    1
55    35    36    1
56    37    38    ar
57    37    54    1
58    38    55    1
@<TRIPOS>SUBSTRUCTURE
1   ZINC000072110046 1     RESIDUE    1   A     ZIN   1


@<TRIPOS>MOLECULE
O=C(N1)SC(CC2=CC=C(OCCC3=NC=C(CC)C=C3)C=C2)C1=O
  44   46    0    0    0
SMALL
USER_CHARGES
NO_NAME
@<TRIPOS>ATOM
    1 C1       -0.0187     1.5258     0.0104 C.3    1 <0>      -0.1500
    2 C2        0.0021    -0.0041     0.0020 C.3    1 <0>      -0.0800
    3 C3        0.7074    -0.4901    -1.2379 C.ar   1 <0>      -0.1400
    4 C4       -0.0040    -0.7218    -2.4049 C.ar   1 <0>      -0.0700
    5 C5        0.6868    -1.1681    -3.5214 C.ar   1 <0>      -0.1600
    6 C6        2.0517    -1.3655    -3.4343 C.ar   1 <0>       0.1300
    7 C7        2.8127    -1.8498    -4.6415 C.3    1 <0>      -0.0700
    8 C8        3.9559    -0.8799    -4.9467 C.3    1 <0>       0.0700
    9 O9        4.6775    -1.3391    -6.0914 O.3    1 <0>      -0.3200
   10 C10       5.7325    -0.5855    -6.4988 C.ar   1 <0>       0.1200
   11 C11       6.0699     0.5690    -5.8075 C.ar   1 <0>      -0.2100
   12 C12       7.1431     1.3330    -6.2234 C.ar   1 <0>      -0.0500
   13 C13       7.8805     0.9482    -7.3279 C.ar   1 <0>      -0.1100
   14 C14       9.0504     1.7838    -7.7796 C.3    1 <0>      -0.0400
   15 C15      10.3226     1.3003    -7.0805 C.3    1 <0>      -0.0900
   16 H16      10.4661     0.2317    -7.2402 H      1 <0>       0.1100
   17 S17      10.2647     1.6843    -5.2976 S.3    1 <0>      -0.3900
   18 C18      11.6908     2.7364    -5.3431 C.2    1 <0>       0.5800
   19 O19      12.1779     3.3259    -4.3979 O.2    1 <0>      -0.5100
   20 N20      12.1335     2.7648    -6.6019 N.pl3  1 <0>      -0.7200
   21 C21      11.5268     2.0798    -7.5619 C.2    1 <0>       0.5200
   22 O22      11.9013     2.0821    -8.7150 O.2    1 <0>      -0.5400
   23 C23       7.5465    -0.2023    -8.0183 C.ar   1 <0>      -0.0800
   24 C24       6.4775    -0.9726    -7.6033 C.ar   1 <0>      -0.1500
   25 N25       2.6962    -1.1347    -2.3070 N.ar   1 <0>      -0.4800
   26 C26       2.0729    -0.7049    -1.2275 C.ar   1 <0>       0.1100
   27 H27       1.0039     1.9031     0.0027 H      1 <0>       0.0600
   28 H28      -0.5459     1.8868    -0.8726 H      1 <0>       0.0600
   29 H29      -0.5289     1.8773     0.9072 H      1 <0>       0.0600
   30 H30       0.5293    -0.3651     0.8851 H      1 <0>       0.0800
   31 H31      -1.0205    -0.3814     0.0098 H      1 <0>       0.0700
   32 H32      -1.0709    -0.5590    -2.4435 H      1 <0>       0.1300
   33 H33       0.1647    -1.3592    -4.4472 H      1 <0>       0.1400
   34 H34       3.2206    -2.8405    -4.4406 H      1 <0>       0.0900
   35 H35       2.1408    -1.9005    -5.4983 H      1 <0>       0.0900
   36 H36       3.5480     0.1108    -5.1476 H      1 <0>       0.0600
   37 H37       4.6278    -0.8292    -4.0899 H      1 <0>       0.0700
   38 H38       5.4938     0.8704    -4.9452 H      1 <0>       0.1200
   39 H39       7.4061     2.2319    -5.6855 H      1 <0>       0.1300
   40 H40       9.1701     1.6880    -8.8588 H      1 <0>       0.0900
   41 H41       8.8706     2.8283    -7.5253 H      1 <0>       0.0800
   42 H42       8.1243    -0.5010    -8.8805 H      1 <0>       0.1300
   43 H43       6.2171    -1.8711    -8.1429 H      1 <0>       0.1300
   44 H44       2.6343    -0.5269    -0.3223 H      1 <0>       0.1600
@<TRIPOS>BOND
   1    1    2 1
   2    1   27 1
   3    1   28 1
   4    1   29 1
   5    2    3 1
   6    2   30 1
   7    2   31 1
   8    3   26 ar
   9    3    4 ar
  10    4    5 ar
  11    4   32 1
  12    5    6 ar
  13    5   33 1
  14    6    7 1
  15    6   25 ar
  16    7    8 1
  17    7   34 1
  18    7   35 1
  19    8    9 1
  20    8   36 1
  21    8   37 1
  22    9   10 1
  23   10   24 ar
  24   10   11 ar
  25   11   12 ar
  26   11   38 1
  27   12   13 ar
  28   12   39 1
  29   13   14 1
  30   13   23 ar
  31   14   15 1
  32   14   40 1
  33   14   41 1
  34   15   16 1
  35   15   21 1
  36   15   17 1
  37   17   18 1
  38   18   19 2
  39   18   20 1
  40   20   21 1
  41   21   22 2
  42   23   24 ar
  43   23   42 1
  44   24   43 1
  45   25   26 ar
  46   26   44 1


@<TRIPOS>MOLECULE
OC1=CC=C(/C=C/C2=CC(O)=CC(O)=C2)C=C1
  29   30    0    0    0
SMALL
USER_CHARGES
NO_NAME
@<TRIPOS>ATOM
    1 O1       -0.0163     1.3543     0.0095 O.3    1 <0>      -0.5000
    2 C2        0.0021    -0.0041     0.0020 C.ar   1 <0>       0.1100
    3 C3        0.0057    -0.6897    -1.2060 C.ar   1 <0>      -0.1400
    4 C4        0.0244    -2.0675    -1.2186 C.ar   1 <0>      -0.0900
    5 C5        0.0397    -2.7751    -0.0132 C.ar   1 <0>      -0.0700
    6 C6        0.0601    -4.2484    -0.0213 C.2    1 <0>      -0.0900
    7 C7        0.0748    -4.9260     1.1377 C.2    1 <0>      -0.1100
    8 C8        0.0953    -6.3997     1.1296 C.ar   1 <0>      -0.0200
    9 C9        0.1053    -7.0937    -0.0826 C.ar   1 <0>      -0.1500
   10 C10       0.1250    -8.4782    -0.0849 C.ar   1 <0>       0.1300
   11 O11       0.1348    -9.1545    -1.2637 O.3    1 <0>      -0.5000
   12 C12       0.1353    -9.1763     1.1143 C.ar   1 <0>      -0.1700
   13 C13       0.1254    -8.4915     2.3212 C.ar   1 <0>       0.1300
   14 O14       0.1360    -9.1807     3.4924 O.3    1 <0>      -0.5000
   15 C15       0.1106    -7.1069     2.3341 C.ar   1 <0>      -0.1400
   16 C16       0.0359    -2.0807     1.1999 C.ar   1 <0>      -0.0900
   17 C17       0.0230    -0.7028     1.2023 C.ar   1 <0>      -0.1400
   18 H18       0.8616     1.7596     0.0033 H      1 <0>       0.3900
   19 H19      -0.0065    -0.1421    -2.1368 H      1 <0>       0.1300
   20 H20       0.0268    -2.5998    -2.1583 H      1 <0>       0.1300
   21 H21       0.0633    -4.7832    -0.9596 H      1 <0>       0.1300
   22 H22       0.0716    -4.3911     2.0760 H      1 <0>       0.1300
   23 H23       0.0973    -6.5513    -1.0164 H      1 <0>       0.1400
   24 H24       1.0209    -9.3377    -1.6047 H      1 <0>       0.3900
   25 H25       0.1507   -10.2562     1.1084 H      1 <0>       0.1400
   26 H26       1.0223    -9.3670     3.8312 H      1 <0>       0.3900
   27 H27       0.1029    -6.5748     3.2739 H      1 <0>       0.1400
   28 H28       0.0477    -2.6231     2.1337 H      1 <0>       0.1300
   29 H29       0.0204    -0.1653     2.1391 H      1 <0>       0.1300
@<TRIPOS>BOND
   1    1    2 1
   2    1   18 1
   3    2   17 ar
   4    2    3 ar
   5    3    4 ar
   6    3   19 1
   7    4    5 ar
   8    4   20 1
   9    5    6 1
  10    5   16 ar
  11    6    7 2
  12    6   21 1
  13    7    8 1
  14    7   22 1
  15    8   15 ar
  16    8    9 ar
  17    9   10 ar
  18    9   23 1
  19   10   11 1
  20   10   12 ar
  21   11   24 1
  22   12   13 ar
  23   12   25 1
  24   13   14 1
  25   13   15 ar
  26   14   26 1
  27   15   27 1
  28   16   17 ar
  29   16   28 1
  30   17   29 1


@<TRIPOS>MOLECULE
O=C(CC(/C=C/C1=CC=C(O)C(OC)=C1)=O)/C=C/C2=CC=C(O)C(OC)=C2
47    48    1     0     0
SMALL
USER_CHARGES
@<TRIPOS>ATOM
1      C1     -0.0173    1.4248    0.0099 C.3      1 ZINC000000899824    0.0200
2      O2      0.0021   -0.0041    0.0020 O.3      1 ZINC000000899824   -0.3100
3      C3     -1.2011   -0.6379    0.0101 C.ar     1 ZINC000000899824    0.1000
4      C4     -2.3683    0.0982    0.0195 C.ar     1 ZINC000000899824   -0.1700
5      C5     -3.6061   -0.5585    0.0278 C.ar     1 ZINC000000899824   -0.0600
6      C6     -4.8515    0.2183    0.0373 C.2      1 ZINC000000899824    0.0000
7      C7     -6.0479   -0.4192    0.0454 C.2      1 ZINC000000899824   -0.2400
8      C8     -7.2424    0.3259    0.0545 C.2      1 ZINC000000899824    0.3700
9      O9     -7.2010    1.5399    0.0552 O.2      1 ZINC000000899824   -0.4300
10     C10    -8.5723   -0.3828    0.0635 C.3      1 ZINC000000899824   -0.2200
11     C11    -9.6837    0.6349    0.0722 C.2      1 ZINC000000899824    0.3700
12     O12    -9.4212    1.8210    0.0713 O.2      1 ZINC000000899824   -0.4300
13     C13   -11.0262    0.2111    0.0815 C.2      1 ZINC000000899824   -0.2400
14     C14   -12.0260    1.1266    0.0894 C.2      1 ZINC000000899824    0.0000
15     C15   -13.4257    0.6847    0.0990 C.ar     1 ZINC000000899824   -0.0500
16     C16   -13.7307   -0.6820    0.1059 C.ar     1 ZINC000000899824   -0.1200
17     C17   -15.0451   -1.0935    0.1155 C.ar     1 ZINC000000899824   -0.1100
18     C18   -16.0700   -0.1565    0.1182 C.ar     1 ZINC000000899824    0.0900
19     O19   -17.3638   -0.5687    0.1281 O.3      1 ZINC000000899824   -0.4800
20     C20   -15.7746    1.2071    0.1114 C.ar     1 ZINC000000899824    0.1000
21     O21   -16.7819    2.1208    0.1146 O.3      1 ZINC000000899824   -0.3100
22     C22   -16.4071    3.4997    0.1071 C.3      1 ZINC000000899824    0.0200
23     C23   -14.4607    1.6291    0.1072 C.ar     1 ZINC000000899824   -0.1700
24     C24    -3.6513   -1.9581    0.0265 C.ar     1 ZINC000000899824   -0.1200
25     C25    -2.4809   -2.6842    0.0171 C.ar     1 ZINC000000899824   -0.1100
26     C26    -1.2549   -2.0321    0.0031 C.ar     1 ZINC000000899824    0.0900
27     O27    -0.1046   -2.7537   -0.0066 O.3      1 ZINC000000899824   -0.4800
28     H28     1.0053    1.8021    0.0021 H        1 ZINC000000899824    0.1000
29     H29    -0.5445    1.7859   -0.8732 H        1 ZINC000000899824    0.0600
30     H30    -0.5275    1.7763    0.9067 H        1 ZINC000000899824    0.0600
31     H31    -2.3279    1.1774    0.0208 H        1 ZINC000000899824    0.1400
32     H32    -4.8147    1.2977    0.0380 H        1 ZINC000000899824    0.1400
33     H33    -6.0846   -1.4985    0.0448 H        1 ZINC000000899824    0.1400
34     H34    -8.6577   -1.0064   -0.8264 H        1 ZINC000000899824    0.1300
35     H35    -8.6450   -1.0078    0.9535 H        1 ZINC000000899824    0.1300
36     H36   -11.2596   -0.8434    0.0823 H        1 ZINC000000899824    0.1400
37     H37   -11.7926    2.1811    0.0886 H        1 ZINC000000899824    0.1400
38     H38   -12.9357   -1.4130    0.1035 H        1 ZINC000000899824    0.1400
39     H39   -15.2792   -2.1478    0.1204 H        1 ZINC000000899824    0.1400
40     H40   -17.7329   -0.6846    1.0143 H        1 ZINC000000899824    0.3900
41     H41   -17.3034    4.1199    0.1107 H        1 ZINC000000899824    0.1000
42     H42   -15.8102    3.7188    0.9925 H        1 ZINC000000899824    0.0600
43     H43   -15.8217    3.7123   -0.7874 H        1 ZINC000000899824    0.0600
44     H44   -14.2309    2.6844    0.1022 H        1 ZINC000000899824    0.1400
45     H45    -4.6033   -2.4679    0.0333 H        1 ZINC000000899824    0.1400
46     H46    -2.5168   -3.7636    0.0165 H        1 ZINC000000899824    0.1400
47     H47     0.2197   -2.9650   -0.8927 H        1 ZINC000000899824    0.3900
@<TRIPOS>BOND
1     1     2     1
2     1     28    1
3     1     29    1
4     1     30    1
5     2     3     1
6     3     26    ar
7     3     4     ar
8     4     5     ar
9     4     31    1
10    5     6     1
11    5     24    ar
12    6     7     2
13    6     32    1
14    7     8     1
15    7     33    1
16    8     9     2
17    8     10    1
18    10    11    1
19    10    34    1
20    10    35    1
21    11    12    2
22    11    13    1
23    13    14    2
24    13    36    1
25    14    15    1
26    14    37    1
27    15    23    ar
28    15    16    ar
29    16    17    ar
30    16    38    1
31    17    18    ar
32    17    39    1
33    18    19    1
34    18    20    ar
35    19    40    1
36    20    21    1
37    20    23    ar
38    21    22    1
39    22    41    1
40    22    42    1
41    22    43    1
42    23    44    1
43    24    25    ar
44    24    45    1
45    25    26    ar
46    25    46    1
47    26    27    1
48    27    47    1
@<TRIPOS>SUBSTRUCTURE
1   ZINC000000899824 1     RESIDUE    1   A     ZIN   1


@<TRIPOS>MOLECULE
COC1=C(C=CC(=C1)C=CC(=O)CC(=O)C=CC2=CC(=C(C=C2)OS(=O)(=O)O)OC)O
50    51    1     0     0
SMALL
USER_CHARGES
@<TRIPOS>ATOM
1      C1     -0.0173    1.4248    0.0099 C.3      1 ZINC000011524418    0.0200
2      O2      0.0021   -0.0041    0.0020 O.3      1 ZINC000011524418   -0.3100
3      C3     -1.2011   -0.6379    0.0101 C.ar     1 ZINC000011524418    0.1000
4      C4     -2.3684    0.0982    0.0195 C.ar     1 ZINC000011524418   -0.1700
5      C5     -3.6061   -0.5584    0.0278 C.ar     1 ZINC000011524418   -0.0500
6      C6     -4.8515    0.2183    0.0373 C.2      1 ZINC000011524418   -0.0100
7      C7     -6.0479   -0.4191    0.0454 C.2      1 ZINC000011524418   -0.2300
8      C8     -7.2424    0.3259    0.0545 C.2      1 ZINC000011524418    0.3700
9      O9     -7.2010    1.5399    0.0552 O.2      1 ZINC000011524418   -0.4200
10     C10    -8.5723   -0.3828    0.0635 C.3      1 ZINC000011524418   -0.2200
11     C11    -9.6837    0.6350    0.0722 C.2      1 ZINC000011524418    0.3800
12     O12    -9.4213    1.8210    0.0713 O.2      1 ZINC000011524418   -0.4300
13     C13   -11.0262    0.2111    0.0815 C.2      1 ZINC000011524418   -0.2600
14     C14   -12.0260    1.1266    0.0894 C.2      1 ZINC000011524418    0.0200
15     C15   -13.4257    0.6848    0.0990 C.ar     1 ZINC000011524418   -0.0700
16     C16   -13.7307   -0.6820    0.1059 C.ar     1 ZINC000011524418   -0.1100
17     C17   -15.0451   -1.0935    0.1155 C.ar     1 ZINC000011524418   -0.0800
18     C18   -16.0700   -0.1565    0.1182 C.ar     1 ZINC000011524418    0.1100
19     O19   -17.3638   -0.5687    0.1281 O.3      1 ZINC000011524418   -0.7000
20     S20   -17.9448   -0.7511    1.5229 S.o2     1 ZINC000011524418    2.7500
21     O21   -19.1700   -1.5201    1.3697 O.co2    1 ZINC000011524418   -1.0600
22     O22   -16.9461   -1.4650    2.3033 O.co2    1 ZINC000011524418   -1.0800
23     O23   -18.1986    0.5812    2.0491 O.co2    1 ZINC000011524418   -1.0600
24     C24   -15.7746    1.2072    0.1114 C.ar     1 ZINC000011524418    0.1200
25     O25   -16.7819    2.1208    0.1146 O.3      1 ZINC000011524418   -0.2800
26     C26   -16.4071    3.4998    0.1071 C.3      1 ZINC000011524418    0.0300
27     C27   -14.4607    1.6291    0.1072 C.ar     1 ZINC000011524418   -0.1700
28     C28    -3.6513   -1.9581    0.0265 C.ar     1 ZINC000011524418   -0.1200
29     C29    -2.4809   -2.6842    0.0171 C.ar     1 ZINC000011524418   -0.1100
30     C30    -1.2549   -2.0321    0.0031 C.ar     1 ZINC000011524418    0.0900
31     O31    -0.1046   -2.7537   -0.0065 O.3      1 ZINC000011524418   -0.4900
32     H32     1.0053    1.8021    0.0021 H        1 ZINC000011524418    0.1000
33     H33    -0.5445    1.7859   -0.8732 H        1 ZINC000011524418    0.0600
34     H34    -0.5275    1.7763    0.9067 H        1 ZINC000011524418    0.0600
35     H35    -2.3279    1.1774    0.0208 H        1 ZINC000011524418    0.1400
36     H36    -4.8147    1.2977    0.0380 H        1 ZINC000011524418    0.1400
37     H37    -6.0846   -1.4985    0.0448 H        1 ZINC000011524418    0.1400
38     H38    -8.6577   -1.0064   -0.8264 H        1 ZINC000011524418    0.1300
39     H39    -8.6450   -1.0078    0.9535 H        1 ZINC000011524418    0.1300
40     H40   -11.2596   -0.8433    0.0823 H        1 ZINC000011524418    0.1400
41     H41   -11.7926    2.1811    0.0886 H        1 ZINC000011524418    0.1300
42     H42   -12.9357   -1.4130    0.1035 H        1 ZINC000011524418    0.1400
43     H43   -15.2792   -2.1478    0.1204 H        1 ZINC000011524418    0.1500
44     H44   -17.3034    4.1200    0.1107 H        1 ZINC000011524418    0.1000
45     H45   -15.8102    3.7188    0.9925 H        1 ZINC000011524418    0.0600
46     H46   -15.8217    3.7123   -0.7874 H        1 ZINC000011524418    0.0500
47     H47   -14.2309    2.6844    0.1022 H        1 ZINC000011524418    0.1400
48     H48    -4.6033   -2.4679    0.0333 H        1 ZINC000011524418    0.1400
49     H49    -2.5168   -3.7636    0.0161 H        1 ZINC000011524418    0.1400
50     H50     0.2197   -2.9650   -0.8927 H        1 ZINC000011524418    0.3900
@<TRIPOS>BOND
1     1     2     1
2     1     32    1
3     1     33    1
4     1     34    1
5     2     3     1
6     3     30    ar
7     3     4     ar
8     4     5     ar
9     4     35    1
10    5     6     1
11    5     28    ar
12    6     7     2
13    6     36    1
14    7     8     1
15    7     37    1
16    8     9     2
17    8     10    1
18    10    11    1
19    10    38    1
20    10    39    1
21    11    12    2
22    11    13    1
23    13    14    2
24    13    40    1
25    14    15    1
26    14    41    1
27    15    27    ar
28    15    16    ar
29    16    17    ar
30    16    42    1
31    17    18    ar
32    17    43    1
33    18    19    1
34    18    24    ar
35    19    20    1
36    20    21    ar
37    20    22    ar
38    20    23    ar
39    24    25    1
40    24    27    ar
41    25    26    1
42    26    44    1
43    26    45    1
44    26    46    1
45    27    47    1
46    28    29    ar
47    28    48    1
48    29    30    ar
49    29    49    1
50    30    31    1
51    31    50    1
@<TRIPOS>SUBSTRUCTURE
1   ZINC000011524418 1     RESIDUE    1   A     ZIN   1


@<TRIPOS>MOLECULE
CCCCCC1=CC(=C2C(=C1)OC(C3=C2C=C(C=C3)C)(C)C)O
  49   51    0    0    0
SMALL
USER_CHARGES
NO_NAME
@<TRIPOS>ATOM
    1 C1       -0.0187     1.5258     0.0104 C.3    1 <0>      -0.1500
    2 C2        0.0021    -0.0041     0.0020 C.3    1 <0>      -0.1300
    3 C3        0.7182    -0.4975    -1.2568 C.3    1 <0>      -0.1200
    4 C4        0.7390    -2.0273    -1.2652 C.3    1 <0>      -0.1100
    5 C5        1.4551    -2.5207    -2.5240 C.3    1 <0>      -0.0800
    6 C6        1.4755    -4.0276    -2.5323 C.ar   1 <0>      -0.0300
    7 C7        2.5275    -4.7015    -1.9406 C.ar   1 <0>      -0.1700
    8 C8        2.5566    -6.0891    -1.9453 C.ar   1 <0>       0.1500
    9 O9        3.5897    -6.7538    -1.3655 O.3    1 <0>      -0.4900
   10 C10       1.5192    -6.7945    -2.5482 C.ar   1 <0>      -0.1500
   11 C11       0.4524    -6.1076    -3.1433 C.ar   1 <0>       0.1600
   12 C12       0.4386    -4.7238    -3.1270 C.ar   1 <0>      -0.1500
   13 O13      -0.5567    -6.8098    -3.7164 O.3    1 <0>      -0.3000
   14 C14      -0.2407    -8.0393    -4.3695 C.3    1 <0>       0.1600
   15 C15      -1.5349    -8.7898    -4.6901 C.3    1 <0>      -0.1400
   16 C16       0.5089    -7.7439    -5.6701 C.3    1 <0>      -0.1700
   17 C17       0.6248    -8.8945    -3.4823 C.ar   1 <0>      -0.1200
   18 C18       0.5658   -10.2690    -3.5393 C.ar   1 <0>      -0.1000
   19 C19       1.3780   -11.0298    -2.7153 C.ar   1 <0>      -0.1200
   20 C20       2.2513   -10.4195    -1.8335 C.ar   1 <0>      -0.0800
   21 C21       3.1318   -11.2596    -0.9447 C.3    1 <0>      -0.1200
   22 C22       2.3185    -9.0403    -1.7659 C.ar   1 <0>      -0.1100
   23 C23       1.5030    -8.2749    -2.5877 C.ar   1 <0>      -0.0200
   24 H24       1.0039     1.9031     0.0027 H      1 <0>       0.0500
   25 H25      -0.5459     1.8868    -0.8726 H      1 <0>       0.0500
   26 H26      -0.5289     1.8773     0.9072 H      1 <0>       0.0500
   27 H27       0.5293    -0.3651     0.8851 H      1 <0>       0.0600
   28 H28      -1.0205    -0.3814     0.0098 H      1 <0>       0.0600
   29 H29       0.1910    -0.1364    -2.1398 H      1 <0>       0.0600
   30 H30       1.7408    -0.1202    -1.2645 H      1 <0>       0.0600
   31 H31       1.2661    -2.3884    -0.3821 H      1 <0>       0.0600
   32 H32      -0.2836    -2.4046    -1.2575 H      1 <0>       0.0700
   33 H33       0.9279    -2.1597    -3.4071 H      1 <0>       0.0800
   34 H34       2.4777    -2.1435    -2.5317 H      1 <0>       0.0800
   35 H35       3.3284    -4.1471    -1.4741 H      1 <0>       0.1300
   36 H36       3.4507    -6.9580    -0.4306 H      1 <0>       0.3900
   37 H37      -0.3783    -4.1870    -3.5863 H      1 <0>       0.1400
   38 H38      -2.1567    -8.1788    -5.3444 H      1 <0>       0.0700
   39 H39      -1.2962    -9.7291    -5.1889 H      1 <0>       0.0800
   40 H40      -2.0738    -8.9962    -3.7654 H      1 <0>       0.0700
   41 H41       1.4286    -7.2040    -5.4448 H      1 <0>       0.0600
   42 H42       0.7513    -8.6813    -6.1707 H      1 <0>       0.0800
   43 H43      -0.1191    -7.1361    -6.3215 H      1 <0>       0.0700
   44 H44      -0.1133   -10.7531    -4.2254 H      1 <0>       0.1300
   45 H45       1.3290   -12.1077    -2.7614 H      1 <0>       0.1300
   46 H46       4.0743   -11.4619    -1.4536 H      1 <0>       0.0700
   47 H47       3.3281   -10.7234    -0.0162 H      1 <0>       0.0700
   48 H48       2.6300   -12.2011    -0.7214 H      1 <0>       0.0700
   49 H49       3.0001    -8.5620    -1.0782 H      1 <0>       0.1400
@<TRIPOS>BOND
   1    1    2 1
   2    1   24 1
   3    1   25 1
   4    1   26 1
   5    2    3 1
   6    2   27 1
   7    2   28 1
   8    3    4 1
   9    3   29 1
  10    3   30 1
  11    4    5 1
  12    4   31 1
  13    4   32 1
  14    5    6 1
  15    5   33 1
  16    5   34 1
  17    6   12 ar
  18    6    7 ar
  19    7    8 ar
  20    7   35 1
  21    8    9 1
  22    8   10 ar
  23    9   36 1
  24   10   23 1
  25   10   11 ar
  26   11   12 ar
  27   11   13 1
  28   12   37 1
  29   13   14 1
  30   14   15 1
  31   14   16 1
  32   14   17 1
  33   15   38 1
  34   15   39 1
  35   15   40 1
  36   16   41 1
  37   16   42 1
  38   16   43 1
  39   17   23 ar
  40   17   18 ar
  41   18   19 ar
  42   18   44 1
  43   19   20 ar
  44   19   45 1
  45   20   21 1
  46   20   22 ar
  47   21   46 1
  48   21   47 1
  49   21   48 1
  50   22   23 ar
  51   22   49 1


@<TRIPOS>MOLECULE
CCCCCC1=CC(=C(C(=C1)O)C2C=C(CCC2C(=C)C)C)O
  53   54    0    0    0
SMALL
USER_CHARGES
NO_NAME
@<TRIPOS>ATOM
    1 C1       -0.0157     1.3058     0.0092 C.2    1 <0>      -0.2000
    2 C2        0.0021    -0.0041     0.0020 C.2    1 <0>      -0.1100
    3 C3        1.3172    -0.7397    -0.0145 C.3    1 <0>      -0.1200
    4 C4       -1.2926    -0.7753     0.0102 C.3    1 <0>      -0.0400
    5 H5       -2.1327    -0.0808     0.0220 H      1 <0>       0.1000
    6 C6       -1.3732    -1.6609    -1.2396 C.3    1 <0>      -0.1100
    7 C7       -2.7659    -2.2924    -1.2963 C.3    1 <0>      -0.0800
    8 C8       -3.1084    -2.9086     0.0284 C.2    1 <0>      -0.1100
    9 C9       -4.2374    -3.9057     0.0732 C.3    1 <0>      -0.1200
   10 C10      -2.4940    -2.6372     1.1350 C.2    1 <0>      -0.1600
   11 C11      -1.3493    -1.6721     1.2488 C.3    1 <0>       0.0000
   12 H12      -0.4149    -2.2276     1.3288 H      1 <0>       0.0900
   13 C13      -1.5324    -0.8229     2.4802 C.ar   1 <0>      -0.1200
   14 C14      -2.6614    -0.0297     2.6150 C.ar   1 <0>       0.1300
   15 O15      -3.6044    -0.0171     1.6366 O.3    1 <0>      -0.4900
   16 C16      -2.8280     0.7510     3.7502 C.ar   1 <0>      -0.1500
   17 C17      -1.8695     0.7386     4.7454 C.ar   1 <0>      -0.0500
   18 C18      -2.0529     1.5874     5.9770 C.3    1 <0>      -0.0800
   19 C19      -2.8025     0.7850     7.0424 C.3    1 <0>      -0.1100
   20 C20      -2.9887     1.6468     8.2929 C.3    1 <0>      -0.1200
   21 C21      -3.7383     0.8443     9.3583 C.3    1 <0>      -0.1300
   22 C22      -3.9245     1.7061    10.6087 C.3    1 <0>      -0.1500
   23 C23      -0.7434    -0.0511     4.6133 C.ar   1 <0>      -0.1500
   24 C24      -0.5750    -0.8379     3.4827 C.ar   1 <0>       0.1300
   25 O25       0.5326    -1.6148     3.3537 O.3    1 <0>      -0.4900
   26 H26       0.9122     1.8585     0.0033 H      1 <0>       0.0900
   27 H27      -0.9582     1.8330     0.0166 H      1 <0>       0.0900
   28 H28       1.6441    -0.9226     1.0091 H      1 <0>       0.0700
   29 H29       1.1949    -1.6910    -0.5323 H      1 <0>       0.0600
   30 H30       2.0639    -0.1376    -0.5322 H      1 <0>       0.0600
   31 H31      -1.2097    -1.0538    -2.1300 H      1 <0>       0.0700
   32 H32      -0.6177    -2.4444    -1.1828 H      1 <0>       0.0600
   33 H33      -3.5010    -1.5249    -1.5387 H      1 <0>       0.0800
   34 H34      -2.7825    -3.0621    -2.0679 H      1 <0>       0.0700
   35 H35      -3.8442    -4.9078    -0.0983 H      1 <0>       0.0700
   36 H36      -4.7183    -3.8665     1.0506 H      1 <0>       0.0600
   37 H37      -4.9664    -3.6642    -0.7004 H      1 <0>       0.0600
   38 H38      -2.8278    -3.1334     2.0343 H      1 <0>       0.1000
   39 H39      -4.2986    -0.6805     1.7508 H      1 <0>       0.3900
   40 H40      -3.7073     1.3691     3.8556 H      1 <0>       0.1300
   41 H41      -1.0774     1.8823     6.3637 H      1 <0>       0.0700
   42 H42      -2.6271     2.4782     5.7222 H      1 <0>       0.0700
   43 H43      -3.7781     0.4902     6.6558 H      1 <0>       0.0600
   44 H44      -2.2284    -0.1058     7.2972 H      1 <0>       0.0600
   45 H45      -2.0132     1.9416     8.6795 H      1 <0>       0.0600
   46 H46      -3.5629     2.5376     8.0380 H      1 <0>       0.0600
   47 H47      -4.7139     0.5495     8.9716 H      1 <0>       0.0600
   48 H48      -3.1642    -0.0464     9.6131 H      1 <0>       0.0600
   49 H49      -4.4585     1.1344    11.3677 H      1 <0>       0.0500
   50 H50      -2.9490     2.0009    10.9954 H      1 <0>       0.0500
   51 H51      -4.4987     2.5969    10.3539 H      1 <0>       0.0500
   52 H52       0.0045    -0.0588     5.3924 H      1 <0>       0.1300
   53 H53       0.4329    -2.5054     3.7170 H      1 <0>       0.3900
@<TRIPOS>BOND
   1    1    2 2
   2    1   26 1
   3    1   27 1
   4    2    3 1
   5    2    4 1
   6    3   28 1
   7    3   29 1
   8    3   30 1
   9    4    5 1
  10    4   11 1
  11    4    6 1
  12    6    7 1
  13    6   31 1
  14    6   32 1
  15    7    8 1
  16    7   33 1
  17    7   34 1
  18    8    9 1
  19    8   10 2
  20    9   35 1
  21    9   36 1
  22    9   37 1
  23   10   11 1
  24   10   38 1
  25   11   12 1
  26   11   13 1
  27   13   24 ar
  28   13   14 ar
  29   14   15 1
  30   14   16 ar
  31   15   39 1
  32   16   17 ar
  33   16   40 1
  34   17   18 1
  35   17   23 ar
  36   18   19 1
  37   18   41 1
  38   18   42 1
  39   19   20 1
  40   19   43 1
  41   19   44 1
  42   20   21 1
  43   20   45 1
  44   20   46 1
  45   21   22 1
  46   21   47 1
  47   21   48 1
  48   22   49 1
  49   22   50 1
  50   22   51 1
  51   23   24 ar
  52   23   52 1
  53   24   25 1
  54   25   53 1


@<TRIPOS>MOLECULE
O=C(N1)SC(CC2=CC=C(OCCN(C)C3=NC=CC=C3)C=C2)C1=O
43    45    1     0     0
SMALL
USER_CHARGES
@<TRIPOS>ATOM
1      C1     -0.0178    1.4608    0.0101 C.3      1 ZINC000000968328    0.0900
2      N2      0.0021   -0.0041    0.0020 N.pl3    1 ZINC000000968328   -0.6100
3      C3      0.0241   -0.7433    1.2666 C.3      1 ZINC000000968328    0.1300
4      C4     -1.4105   -1.0203    1.7205 C.3      1 ZINC000000968328    0.0400
5      O5     -2.0465   -1.8923    0.7840 O.3      1 ZINC000000968328   -0.2900
6      C6     -3.3348   -2.2400    1.0412 C.ar     1 ZINC000000968328    0.1200
7      C7     -3.9756   -1.7474    2.1688 C.ar     1 ZINC000000968328   -0.2100
8      C8     -5.2854   -2.1021    2.4278 C.ar     1 ZINC000000968328   -0.0500
9      C9     -5.9575   -2.9475    1.5646 C.ar     1 ZINC000000968328   -0.1100
10     C10    -7.3862   -3.3331    1.8499 C.3      1 ZINC000000968328   -0.0400
11     C11    -8.3282   -2.3252    1.1885 C.3      1 ZINC000000968328   -0.0900
12     H12    -8.1081   -2.2345    0.1248 H        1 ZINC000000968328    0.1100
13     S13    -8.2158   -0.7006    2.0115 S.3      1 ZINC000000968328   -0.4000
14     C14    -9.9146   -0.6919    2.5184 C.2      1 ZINC000000968328    0.5800
15     O15   -10.4712    0.1877    3.1466 O.2      1 ZINC000000968328   -0.5100
16     N16   -10.4722   -1.8248    2.0862 N.pl3    1 ZINC000000968328   -0.7200
17     C17    -9.7725   -2.7215    1.4041 C.2      1 ZINC000000968328    0.5200
18     O18   -10.2463   -3.7602    0.9962 O.2      1 ZINC000000968328   -0.5400
19     C19    -5.3213   -3.4395    0.4399 C.ar     1 ZINC000000968328   -0.0800
20     C20    -4.0133   -3.0837    0.1736 C.ar     1 ZINC000000968328   -0.1500
21     C21     0.0000   -0.6926   -1.2056 C.ar     1 ZINC000000968328    0.4100
22     C22     0.0902    0.0126   -2.4011 C.ar     1 ZINC000000968328   -0.2400
23     C23     0.0875   -0.6853   -3.5956 C.ar     1 ZINC000000968328   -0.0400
24     C24    -0.0057   -2.0699   -3.5539 C.ar     1 ZINC000000968328   -0.2400
25     C25    -0.0922   -2.7053   -2.3312 C.ar     1 ZINC000000968328    0.1500
26     N26    -0.0823   -2.0143   -1.2072 N.ar     1 ZINC000000968328   -0.5200
27     H27     1.0048    1.8381    0.0023 H        1 ZINC000000968328    0.0500
28     H28    -0.5450    1.8219   -0.8730 H        1 ZINC000000968328    0.0700
29     H29    -0.5280    1.8123    0.9069 H        1 ZINC000000968328    0.0700
30     H30     0.5496   -1.6879    1.1262 H        1 ZINC000000968328    0.0900
31     H31     0.5371   -0.1514    2.0246 H        1 ZINC000000968328    0.0900
32     H32    -1.3961   -1.4911    2.7035 H        1 ZINC000000968328    0.0700
33     H33    -1.9619   -0.0816    1.7754 H        1 ZINC000000968328    0.0600
34     H34    -3.4507   -1.0876    2.8437 H        1 ZINC000000968328    0.1200
35     H35    -5.7846   -1.7188    3.3055 H        1 ZINC000000968328    0.1300
36     H36    -7.5805   -4.3285    1.4504 H        1 ZINC000000968328    0.0900
37     H37    -7.5539   -3.3347    2.9269 H        1 ZINC000000968328    0.0800
38     H38    -5.8486   -4.0994   -0.2330 H        1 ZINC000000968328    0.1300
39     H39    -3.5167   -3.4682   -0.7050 H        1 ZINC000000968328    0.1200
40     H40     0.1610    1.0902   -2.3970 H        1 ZINC000000968328    0.1300
41     H41     0.1559   -0.1647   -4.5394 H        1 ZINC000000968328    0.1300
42     H42    -0.0107   -2.6441   -4.4686 H        1 ZINC000000968328    0.1300
43     H43    -0.1648   -3.7823   -2.2941 H        1 ZINC000000968328    0.1500
@<TRIPOS>BOND
1     1     2     1
2     1     27    1
3     1     28    1
4     1     29    1
5     2     3     1
6     2     21    1
7     3     4     1
8     3     30    1
9     3     31    1
10    4     5     1
11    4     32    1
12    4     33    1
13    5     6     1
14    6     20    ar
15    6     7     ar
16    7     8     ar
17    7     34    1
18    8     9     ar
19    8     35    1
20    9     10    1
21    9     19    ar
22    10    11    1
23    10    36    1
24    10    37    1
25    11    12    1
26    11    17    1
27    11    13    1
28    13    14    1
29    14    15    2
30    14    16    1
31    16    17    1
32    17    18    2
33    19    20    ar
34    19    38    1
35    20    39    1
36    21    26    ar
37    21    22    ar
38    22    23    ar
39    22    40    1
40    23    24    ar
41    23    41    1
42    24    25    ar
43    24    42    1
44    25    26    ar
45    25    43    1
@<TRIPOS>SUBSTRUCTURE
1   ZINC000000968328 1     RESIDUE    1   A     ZIN   1


@<TRIPOS>MOLECULE
OC([C@@H](OCC)CC1=CC=C(OCCN2C(C)=CC=C2C3=CC=C(SC)C=C3)C=C1)=O
59    61    1     0     0
SMALL
USER_CHARGES
@<TRIPOS>ATOM
1      C1      0.1298    1.7633   -0.0500 C.3      1 ZINC000146274983   -0.1400
2      C2      0.2091    0.2354   -0.0586 C.3      1 ZINC000146274983    0.0700
3      O3      0.8785   -0.2001   -1.2436 O.3      1 ZINC000146274983   -0.3700
4      C4      1.0064   -1.6194   -1.3507 C.3      1 ZINC000146274983    0.0300
5      H5      0.1677   -2.0988   -0.8461 H        1 ZINC000146274983    0.0500
6      C6      1.0107   -2.0211   -2.8270 C.3      1 ZINC000146274983   -0.0600
7      C7     -0.3264   -1.6939   -3.4405 C.ar     1 ZINC000146274983   -0.0900
8      C8     -1.3426   -2.6313   -3.4211 C.ar     1 ZINC000146274983   -0.0800
9      C9     -2.5691   -2.3338   -3.9827 C.ar     1 ZINC000146274983   -0.1500
10     C10    -2.7809   -1.0931   -4.5662 C.ar     1 ZINC000146274983    0.1100
11     O11    -3.9868   -0.7979   -5.1191 O.3      1 ZINC000146274983   -0.3200
12     C12    -4.1333    0.4986   -5.7020 C.3      1 ZINC000146274983    0.0400
13     C13    -5.5467    0.6462   -6.2688 C.3      1 ZINC000146274983    0.1000
14     N14    -5.7312    2.0097   -6.7718 N.pl3    1 ZINC000146274983   -0.4300
15     C15    -6.0905    3.0925   -6.0237 C.2      1 ZINC000146274983    0.0300
16     C16    -6.3639    3.0874   -4.5417 C.3      1 ZINC000146274983   -0.0900
17     C17    -6.1590    4.1695   -6.8350 C.2      1 ZINC000146274983   -0.2000
18     C18    -5.8317    3.7469   -8.1342 C.2      1 ZINC000146274983   -0.1700
19     C19    -5.5659    2.4120   -8.0722 C.2      1 ZINC000146274983    0.0500
20     C20    -5.1768    1.5485   -9.2075 C.ar     1 ZINC000146274983   -0.0200
21     C21    -5.4917    1.9269  -10.5141 C.ar     1 ZINC000146274983   -0.0800
22     C22    -5.1278    1.1202  -11.5703 C.ar     1 ZINC000146274983   -0.0900
23     C23    -4.4480   -0.0704  -11.3357 C.ar     1 ZINC000146274983   -0.0900
24     S24    -3.9848   -1.0998  -12.6887 S.3      1 ZINC000146274983   -0.1200
25     C25    -3.1482   -2.4894  -11.8765 C.3      1 ZINC000146274983   -0.1500
26     C26    -4.1326   -0.4497  -10.0352 C.ar     1 ZINC000146274983   -0.1200
27     C27    -4.4889    0.3560   -8.9756 C.ar     1 ZINC000146274983   -0.1200
28     C28    -1.7598   -0.1541   -4.5840 C.ar     1 ZINC000146274983   -0.2100
29     C29    -0.5366   -0.4548   -4.0167 C.ar     1 ZINC000146274983   -0.0600
30     C30     2.2968   -2.0574   -0.7072 C.2      1 ZINC000146274983    0.4800
31     O31     3.0382   -1.2308   -0.2036 O.co2    1 ZINC000146274983   -0.6800
32     O32     2.5994   -3.2384   -0.6902 O.co2    1 ZINC000146274983   -0.7000
33     H33     1.1369    2.1796   -0.0722 H        1 ZINC000146274983    0.0600
34     H34    -0.4233    2.1033   -0.9255 H        1 ZINC000146274983    0.0500
35     H35    -0.3808    2.0955    0.8539 H        1 ZINC000146274983    0.0600
36     H36     0.7622   -0.1047    0.8169 H        1 ZINC000146274983    0.0500
37     H37    -0.7980   -0.1809   -0.0364 H        1 ZINC000146274983    0.0300
38     H38     1.7944   -1.4734   -3.3504 H        1 ZINC000146274983    0.0700
39     H39     1.1970   -3.0917   -2.9117 H        1 ZINC000146274983    0.0900
40     H40    -1.1772   -3.5970   -2.9667 H        1 ZINC000146274983    0.1300
41     H41    -3.3623   -3.0666   -3.9680 H        1 ZINC000146274983    0.1300
42     H42    -3.9658    1.2603   -4.9405 H        1 ZINC000146274983    0.0700
43     H43    -3.4055    0.6206   -6.5042 H        1 ZINC000146274983    0.0700
44     H44    -5.6874   -0.0639   -7.0837 H        1 ZINC000146274983    0.1100
45     H45    -6.2758    0.4469   -5.4834 H        1 ZINC000146274983    0.1000
46     H46    -5.4390    3.2882   -4.0009 H        1 ZINC000146274983    0.0700
47     H47    -7.0977    3.8578   -4.3050 H        1 ZINC000146274983    0.0800
48     H48    -6.7526    2.1126   -4.2473 H        1 ZINC000146274983    0.0600
49     H49    -6.4187    5.1751   -6.5386 H        1 ZINC000146274983    0.1400
50     H50    -5.7937    4.3664   -9.0180 H        1 ZINC000146274983    0.1400
51     H51    -6.0201    2.8509  -10.6967 H        1 ZINC000146274983    0.1300
52     H52    -5.3711    1.4124  -12.5811 H        1 ZINC000146274983    0.1300
53     H53    -2.2883   -2.1195  -11.3180 H        1 ZINC000146274983    0.0900
54     H54    -3.8407   -2.9815  -11.1936 H        1 ZINC000146274983    0.0900
55     H55    -2.8128   -3.2021  -12.6299 H        1 ZINC000146274983    0.1100
56     H56    -3.6044   -1.3745   -9.8561 H        1 ZINC000146274983    0.1300
57     H57    -4.2437    0.0609   -7.9660 H        1 ZINC000146274983    0.1300
58     H58    -1.9221    0.8123   -5.0379 H        1 ZINC000146274983    0.1200
59     H59     0.2585    0.2760   -4.0300 H        1 ZINC000146274983    0.1300
@<TRIPOS>BOND
1     1     2     1
2     1     33    1
3     1     34    1
4     1     35    1
5     2     3     1
6     2     36    1
7     2     37    1
8     3     4     1
9     4     5     1
10    4     6     1
11    4     30    1
12    6     7     1
13    6     38    1
14    6     39    1
15    7     29    ar
16    7     8     ar
17    8     9     ar
18    8     40    1
19    9     10    ar
20    9     41    1
21    10    11    1
22    10    28    ar
23    11    12    1
24    12    13    1
25    12    42    1
26    12    43    1
27    13    14    1
28    13    44    1
29    13    45    1
30    14    19    1
31    14    15    1
32    15    16    1
33    15    17    2
34    16    46    1
35    16    47    1
36    16    48    1
37    17    18    1
38    17    49    1
39    18    19    2
40    18    50    1
41    19    20    1
42    20    27    ar
43    20    21    ar
44    21    22    ar
45    21    51    1
46    22    23    ar
47    22    52    1
48    23    24    1
49    23    26    ar
50    24    25    1
51    25    53    1
52    25    54    1
53    25    55    1
54    26    27    ar
55    26    56    1
56    27    57    1
57    28    29    ar
58    28    58    1
59    29    59    1
60    30    31    ar
61    30    32    ar
@<TRIPOS>SUBSTRUCTURE
1   ZINC000146274983 1     RESIDUE    1   A     ZIN   1


@<TRIPOS>MOLECULE
O=C(NC1=NC=C([N+]([O-])=O)S1)C2=CC=CC=C2OC(C)=O
  30   31    0    0    0
SMALL
USER_CHARGES
NO_NAME
@<TRIPOS>ATOM
    1 C1       -1.3020     1.4115    -1.4368 C.3    1 <0>      -0.1400
    2 C2       -1.1962    -0.0897    -1.3562 C.2    1 <0>       0.4800
    3 O3       -2.1877    -0.7718    -1.4638 O.2    1 <0>      -0.5000
    4 O4        0.0001    -0.6693    -1.1647 O.3    1 <0>      -0.2800
    5 C5        0.0124    -2.0159    -0.9962 C.ar   1 <0>       0.1500
    6 C6       -0.0346    -2.5585     0.2785 C.ar   1 <0>      -0.1300
    7 C7       -0.0219    -3.9293     0.4486 C.ar   1 <0>      -0.0700
    8 C8        0.0376    -4.7709    -0.6496 C.ar   1 <0>      -0.1200
    9 C9        0.0853    -4.2483    -1.9244 C.ar   1 <0>      -0.0700
   10 C10       0.0669    -2.8644    -2.1107 C.ar   1 <0>      -0.1500
   11 C11       0.1172    -2.2983    -3.4723 C.2    1 <0>       0.5600
   12 O12       0.1010    -1.0928    -3.6305 O.2    1 <0>      -0.4400
   13 N13       0.1812    -3.1174    -4.5407 N.am   1 <0>      -0.6300
   14 C14       0.2286    -2.5845    -5.8225 C.2    1 <0>       0.3100
   15 N15       0.2223    -1.3184    -6.1010 N.2    1 <0>      -0.4800
   16 C16       0.2731    -0.9872    -7.3777 C.2    1 <0>       0.1900
   17 C17       0.3249    -2.0227    -8.2178 C.2    1 <0>      -0.2500
   18 N18       0.3886    -1.9418    -9.6948 N.pl3  1 <0>       0.0700
   19 O19       0.3972    -0.8553   -10.2454 O.2    1 <0>      -0.1400
   20 O20       0.4325    -2.9616   -10.3593 O.2    1 <0>      -0.1500
   21 S21       0.3113    -3.5027    -7.2623 S.3    1 <0>       0.2800
   22 H22      -1.4686     1.8181    -0.4393 H      1 <0>       0.1100
   23 H23      -0.3776     1.8194    -1.8457 H      1 <0>       0.1000
   24 H24      -2.1362     1.6827    -2.0838 H      1 <0>       0.1100
   25 H25      -0.0808    -1.9086     1.1398 H      1 <0>       0.1400
   26 H26      -0.0583    -4.3472     1.4438 H      1 <0>       0.1400
   27 H27       0.0471    -5.8413    -0.5067 H      1 <0>       0.1400
   28 H28       0.1324    -4.9083    -2.7780 H      1 <0>       0.1300
   29 H29       0.1942    -4.0791    -4.4144 H      1 <0>       0.4300
   30 H30       0.2725     0.0387    -7.7151 H      1 <0>       0.2100
@<TRIPOS>BOND
   1    1    2 1
   2    1   22 1
   3    1   23 1
   4    1   24 1
   5    2    3 2
   6    2    4 1
   7    4    5 1
   8    5   10 ar
   9    5    6 ar
  10    6    7 ar
  11    6   25 1
  12    7    8 ar
  13    7   26 1
  14    8    9 ar
  15    8   27 1
  16    9   10 ar
  17    9   28 1
  18   10   11 1
  19   11   12 2
  20   11   13 am
  21   13   14 1
  22   13   29 1
  23   14   21 1
  24   14   15 2
  25   15   16 1
  26   16   17 2
  27   16   30 1
  28   17   18 1
  29   17   21 1
  30   18   19 2
  31   18   20 2


@<TRIPOS>MOLECULE
O=C(NCC1=C(OCCC)C=CC(C(NS(C2=CC=CC=C2)(=O)=O)=O)=C1)C3=CC=C(C4=NC=CC=N4)C=C3
63    66    1     0     0
SMALL
USER_CHARGES
@<TRIPOS>ATOM
1      C1     -0.0187    1.5258    0.0104 C.3      1 ZINC000219057107   -0.1500
2      C2      0.0021   -0.0041    0.0020 C.3      1 ZINC000219057107   -0.1200
3      C3      0.7421   -0.5109    1.2415 C.3      1 ZINC000219057107    0.0600
4      O4      0.7614   -1.9398    1.2337 O.3      1 ZINC000219057107   -0.3100
5      C5      1.3843   -2.5532    2.2717 C.ar     1 ZINC000219057107    0.1500
6      C6      1.9608   -1.7921    3.2816 C.ar     1 ZINC000219057107   -0.2300
7      C7      2.5934   -2.4109    4.3369 C.ar     1 ZINC000219057107   -0.0100
8      C8      2.6551   -3.8056    4.3913 C.ar     1 ZINC000219057107   -0.1200
9      C9      3.3317   -4.4728    5.5208 C.2      1 ZINC000219057107    0.5600
10     O10     3.3846   -5.6867    5.5666 O.2      1 ZINC000219057107   -0.6300
11     N11     3.8910   -3.7365    6.5014 N.pl3    1 ZINC000219057107   -1.1100
12     S12     4.6501   -4.4851    7.7686 S.o2     1 ZINC000219057107    2.6400
13     O13     3.6394   -5.1751    8.4908 O.2      1 ZINC000219057107   -1.0200
14     O14     5.7951   -5.1289    7.2267 O.2      1 ZINC000219057107   -1.0200
15     C15     5.2502   -3.2199    8.8381 C.ar     1 ZINC000219057107   -0.6200
16     C16     6.5159   -2.6975    8.6487 C.ar     1 ZINC000219057107   -0.0200
17     C17     6.9867   -1.7050    9.4878 C.ar     1 ZINC000219057107   -0.1500
18     C18     6.1916   -1.2344   10.5160 C.ar     1 ZINC000219057107   -0.0900
19     C19     4.9254   -1.7562   10.7048 C.ar     1 ZINC000219057107   -0.1500
20     C20     4.4530   -2.7457    9.8631 C.ar     1 ZINC000219057107   -0.0200
21     C21     2.0742   -4.5673    3.3738 C.ar     1 ZINC000219057107   -0.0200
22     C22     1.4390   -3.9413    2.3249 C.ar     1 ZINC000219057107   -0.1700
23     C23     0.8118   -4.7616    1.2273 C.3      1 ZINC000219057107    0.1800
24     N24     1.7094   -4.7966    0.0700 N.am     1 ZINC000219057107   -0.7100
25     C25     1.3542   -5.4768   -1.0380 C.2      1 ZINC000219057107    0.5500
26     O26     0.2891   -6.0612   -1.0770 O.2      1 ZINC000219057107   -0.5400
27     C27     2.2601   -5.5121   -2.2059 C.ar     1 ZINC000219057107   -0.1100
28     C28     3.4863   -4.8457   -2.1594 C.ar     1 ZINC000219057107   -0.1000
29     C29     4.3298   -4.8795   -3.2478 C.ar     1 ZINC000219057107   -0.0800
30     C30     3.9593   -5.5787   -4.3962 C.ar     1 ZINC000219057107   -0.0300
31     C31     4.8680   -5.6142   -5.5679 C.ar     1 ZINC000219057107    0.3600
32     N32     6.0309   -4.9803   -5.5044 N.ar     1 ZINC000219057107   -0.5100
33     C33     6.8639   -4.9925   -6.5304 C.ar     1 ZINC000219057107    0.1500
34     C34     6.5087   -5.6789   -7.6823 C.ar     1 ZINC000219057107   -0.2400
35     C35     5.2848   -6.3310   -7.7148 C.ar     1 ZINC000219057107    0.1500
36     N36     4.5006   -6.2835   -6.6519 N.ar     1 ZINC000219057107   -0.5100
37     C37     2.7350   -6.2450   -4.4435 C.ar     1 ZINC000219057107   -0.0800
38     C38     1.8925   -6.2167   -3.3541 C.ar     1 ZINC000219057107   -0.0700
39     H39     1.0039    1.9031    0.0027 H        1 ZINC000219057107    0.0600
40     H40    -0.5459    1.8868   -0.8726 H        1 ZINC000219057107    0.0600
41     H41    -0.5289    1.8773    0.9072 H        1 ZINC000219057107    0.0600
42     H42    -1.0205   -0.3814    0.0098 H        1 ZINC000219057107    0.0700
43     H43     0.5123   -0.3556   -0.8948 H        1 ZINC000219057107    0.0700
44     H44     1.7647   -0.1336    1.2338 H        1 ZINC000219057107    0.0600
45     H45     0.2319   -0.1594    2.1383 H        1 ZINC000219057107    0.0600
46     H46     1.9129   -0.7141    3.2386 H        1 ZINC000219057107    0.1300
47     H47     3.0414   -1.8188    5.1212 H        1 ZINC000219057107    0.1500
48     H48     7.1372   -3.0652    7.8454 H        1 ZINC000219057107    0.1400
49     H49     7.9759   -1.2974    9.3402 H        1 ZINC000219057107    0.1200
50     H50     6.5596   -0.4595   11.1720 H        1 ZINC000219057107    0.1200
51     H51     4.3043   -1.3888   11.5084 H        1 ZINC000219057107    0.1200
52     H52     3.4638   -3.1533   10.0106 H        1 ZINC000219057107    0.1400
53     H53     2.1202   -5.6457    3.4121 H        1 ZINC000219057107    0.1400
54     H54     0.6406   -5.7769    1.5851 H        1 ZINC000219057107    0.0800
55     H55    -0.1385   -4.3137    0.9367 H        1 ZINC000219057107    0.0800
56     H56     2.5594   -4.3303    0.1012 H        1 ZINC000219057107    0.4000
57     H57     3.7731   -4.3036   -1.2704 H        1 ZINC000219057107    0.1300
58     H58     5.2782   -4.3642   -3.2120 H        1 ZINC000219057107    0.1400
59     H59     7.8096   -4.4740   -6.4728 H        1 ZINC000219057107    0.1700
60     H60     7.1704   -5.7047   -8.5354 H        1 ZINC000219057107    0.1500
61     H61     4.9783   -6.8744   -8.5963 H        1 ZINC000219057107    0.1700
62     H62     2.4489   -6.7862   -5.3332 H        1 ZINC000219057107    0.1400
63     H63     0.9445   -6.7328   -3.3908 H        1 ZINC000219057107    0.1400
@<TRIPOS>BOND
1     1     2     1
2     1     39    1
3     1     40    1
4     1     41    1
5     2     3     1
6     2     42    1
7     2     43    1
8     3     4     1
9     3     44    1
10    3     45    1
11    4     5     1
12    5     22    ar
13    5     6     ar
14    6     7     ar
15    6     46    1
16    7     8     ar
17    7     47    1
18    8     9     1
19    8     21    ar
20    9     10    2
21    9     11    1
22    11    12    1
23    12    13    2
24    12    14    2
25    12    15    1
26    15    20    ar
27    15    16    ar
28    16    17    ar
29    16    48    1
30    17    18    ar
31    17    49    1
32    18    19    ar
33    18    50    1
34    19    20    ar
35    19    51    1
36    20    52    1
37    21    22    ar
38    21    53    1
39    22    23    1
40    23    24    1
41    23    54    1
42    23    55    1
43    24    25    am
44    24    56    1
45    25    26    2
46    25    27    1
47    27    38    ar
48    27    28    ar
49    28    29    ar
50    28    57    1
51    29    30    ar
52    29    58    1
53    30    31    1
54    30    37    ar
55    31    36    ar
56    31    32    ar
57    32    33    ar
58    33    34    ar
59    33    59    1
60    34    35    ar
61    34    60    1
62    35    36    ar
63    35    61    1
64    37    38    ar
65    37    62    1
66    38    63    1
@<TRIPOS>SUBSTRUCTURE
1   ZINC000219057107 1     RESIDUE    1   A     ZIN   1


@<TRIPOS>MOLECULE
O=C(NCC1=C(OCCC)C=CC(C[C@@H](C(O)=O)CC2=CC=CC=C2)=C1)C3=CC=C(C4=NC=CC=N4)C=C3
68    71    1     0     0
SMALL
USER_CHARGES
@<TRIPOS>ATOM
1      C1     -0.0187    1.5258    0.0104 C.3      1 ZINC000096909580   -0.1500
2      C2      0.0021   -0.0041    0.0020 C.3      1 ZINC000096909580   -0.1200
3      C3      0.7182   -0.4975   -1.2568 C.3      1 ZINC000096909580    0.0600
4      O4      0.7376   -1.9263   -1.2646 O.3      1 ZINC000096909580   -0.3100
5      C5      1.3413   -2.5294   -2.3224 C.ar     1 ZINC000096909580    0.1300
6      C6      1.9084   -1.7617   -3.3289 C.ar     1 ZINC000096909580   -0.2100
7      C7      2.5221   -2.3772   -4.4030 C.ar     1 ZINC000096909580   -0.0400
8      C8      2.5707   -3.7569   -4.4752 C.ar     1 ZINC000096909580   -0.1000
9      C9      3.2402   -4.4256   -5.6481 C.3      1 ZINC000096909580   -0.0600
10     C10     4.7212   -4.6450   -5.3330 C.3      1 ZINC000096909580   -0.1500
11     H11     4.8156   -5.2040   -4.4020 H        1 ZINC000096909580    0.0600
12     C12     5.3731   -5.4343   -6.4701 C.3      1 ZINC000096909580   -0.0600
13     C13     6.7992   -5.7566   -6.1047 C.ar     1 ZINC000096909580   -0.0600
14     C14     7.8132   -4.8775   -6.4363 C.ar     1 ZINC000096909580   -0.0900
15     C15     9.1213   -5.1731   -6.1011 C.ar     1 ZINC000096909580   -0.1200
16     C16     9.4154   -6.3476   -5.4340 C.ar     1 ZINC000096909580   -0.1300
17     C17     8.4012   -7.2262   -5.1016 C.ar     1 ZINC000096909580   -0.1300
18     C18     7.0926   -6.9285   -5.4329 C.ar     1 ZINC000096909580   -0.1200
19     C19     5.4073   -3.3109   -5.1897 C.2      1 ZINC000096909580    0.5100
20     O20     5.9518   -3.0151   -4.1397 O.co2    1 ZINC000096909580   -0.6900
21     O21     5.4178   -2.5274   -6.1238 O.co2    1 ZINC000096909580   -0.7000
22     C22     2.0064   -4.5245   -3.4728 C.ar     1 ZINC000096909580   -0.0600
23     C23     1.3965   -3.9139   -2.3944 C.ar     1 ZINC000096909580   -0.1500
24     C24     0.7822   -4.7510   -1.3021 C.3      1 ZINC000096909580    0.1800
25     N25    -0.6674   -4.8256   -1.5007 N.am     1 ZINC000096909580   -0.7100
26     C26    -1.4304   -5.5265   -0.6388 C.2      1 ZINC000096909580    0.5500
27     O27    -0.9160   -6.0968    0.3033 O.2      1 ZINC000096909580   -0.5400
28     C28    -2.8933   -5.6019   -0.8393 C.ar     1 ZINC000096909580   -0.1100
29     C29    -3.4841   -4.9518   -1.9248 C.ar     1 ZINC000096909580   -0.1000
30     C30    -4.8470   -5.0229   -2.1110 C.ar     1 ZINC000096909580   -0.0800
31     C31    -5.6369   -5.7436   -1.2156 C.ar     1 ZINC000096909580   -0.0300
32     C32    -7.1045   -5.8192   -1.4167 C.ar     1 ZINC000096909580    0.3600
33     N33    -7.6480   -5.2003   -2.4558 N.ar     1 ZINC000096909580   -0.5100
34     C34    -8.9524   -5.2482   -2.6642 C.ar     1 ZINC000096909580    0.1500
35     C35    -9.7532   -5.9563   -1.7803 C.ar     1 ZINC000096909580   -0.2300
36     C36    -9.1518   -6.5919   -0.7039 C.ar     1 ZINC000096909580    0.1500
37     N37    -7.8410   -6.5085   -0.5563 N.ar     1 ZINC000096909580   -0.5100
38     C38    -5.0477   -6.3936   -0.1315 C.ar     1 ZINC000096909580   -0.0800
39     C39    -3.6843   -6.3280    0.0534 C.ar     1 ZINC000096909580   -0.0700
40     H40     1.0039    1.9031    0.0027 H        1 ZINC000096909580    0.0600
41     H41    -0.5459    1.8868   -0.8726 H        1 ZINC000096909580    0.0600
42     H42    -0.5289    1.8773    0.9072 H        1 ZINC000096909580    0.0600
43     H43     0.5293   -0.3651    0.8851 H        1 ZINC000096909580    0.0700
44     H44    -1.0205   -0.3814    0.0098 H        1 ZINC000096909580    0.0700
45     H45     0.1910   -0.1364   -2.1398 H        1 ZINC000096909580    0.0600
46     H46     1.7408   -0.1202   -1.2645 H        1 ZINC000096909580    0.0600
47     H47     1.8701   -0.6838   -3.2733 H        1 ZINC000096909580    0.1200
48     H48     2.9638   -1.7800   -5.1869 H        1 ZINC000096909580    0.1300
49     H49     2.7631   -5.3869   -5.8393 H        1 ZINC000096909580    0.0600
50     H50     3.1463   -3.7917   -6.5299 H        1 ZINC000096909580    0.0700
51     H51     4.8215   -6.3603   -6.6324 H        1 ZINC000096909580    0.0600
52     H52     5.3577   -4.8375   -7.3820 H        1 ZINC000096909580    0.0700
53     H53     7.5834   -3.9599   -6.9575 H        1 ZINC000096909580    0.1300
54     H54     9.9136   -4.4866   -6.3608 H        1 ZINC000096909580    0.1200
55     H55    10.4374   -6.5789   -5.1727 H        1 ZINC000096909580    0.1100
56     H56     8.6310   -8.1439   -4.5807 H        1 ZINC000096909580    0.1100
57     H57     6.3003   -7.6150   -5.1733 H        1 ZINC000096909580    0.1100
58     H58     2.0460   -5.6021   -3.5314 H        1 ZINC000096909580    0.1300
59     H59     1.2052   -5.7551   -1.3323 H        1 ZINC000096909580    0.0800
60     H60     0.9933   -4.2968   -0.3340 H        1 ZINC000096909580    0.0800
61     H61    -1.0779   -4.3706   -2.2526 H        1 ZINC000096909580    0.4000
62     H62    -2.8727   -4.3931   -2.6179 H        1 ZINC000096909580    0.1300
63     H63    -5.3041   -4.5202   -2.9505 H        1 ZINC000096909580    0.1400
64     H64    -9.3893   -4.7418   -3.5121 H        1 ZINC000096909580    0.1700
65     H65   -10.8218   -6.0114   -1.9267 H        1 ZINC000096909580    0.1500
66     H66    -9.7469   -7.1514    0.0026 H        1 ZINC000096909580    0.1700
67     H67    -5.6602   -6.9514    0.5614 H        1 ZINC000096909580    0.1400
68     H68    -3.2282   -6.8314    0.8930 H        1 ZINC000096909580    0.1400
@<TRIPOS>BOND
1     1     2     1
2     1     40    1
3     1     41    1
4     1     42    1
5     2     3     1
6     2     43    1
7     2     44    1
8     3     4     1
9     3     45    1
10    3     46    1
11    4     5     1
12    5     23    ar
13    5     6     ar
14    6     7     ar
15    6     47    1
16    7     8     ar
17    7     48    1
18    8     9     1
19    8     22    ar
20    9     10    1
21    9     49    1
22    9     50    1
23    10    11    1
24    10    12    1
25    10    19    1
26    12    13    1
27    12    51    1
28    12    52    1
29    13    18    ar
30    13    14    ar
31    14    15    ar
32    14    53    1
33    15    16    ar
34    15    54    1
35    16    17    ar
36    16    55    1
37    17    18    ar
38    17    56    1
39    18    57    1
40    19    20    ar
41    19    21    ar
42    22    23    ar
43    22    58    1
44    23    24    1
45    24    25    1
46    24    59    1
47    24    60    1
48    25    26    am
49    25    61    1
50    26    27    2
51    26    28    1
52    28    39    ar
53    28    29    ar
54    29    30    ar
55    29    62    1
56    30    31    ar
57    30    63    1
58    31    32    1
59    31    38    ar
60    32    37    ar
61    32    33    ar
62    33    34    ar
63    34    35    ar
64    34    64    1
65    35    36    ar
66    35    65    1
67    36    37    ar
68    36    66    1
69    38    39    ar
70    38    67    1
71    39    68    1
@<TRIPOS>SUBSTRUCTURE
1   ZINC000096909580 1     RESIDUE    1   A     ZIN   1


@<TRIPOS>MOLECULE
C1=CC(=C(C=C1C2=CC(=O)C3=C(C=C(C=C3O2)O)O)O)O
30    32    1     0     0
SMALL
USER_CHARGES
@<TRIPOS>ATOM
1      O1      0.0021   -0.0041    0.0020 O.2      1 ZINC000018185774   -0.5000
2      C2     -0.0145    1.2162    0.0087 C.2      1 ZINC000018185774    0.4300
3      C3     -1.2333    1.9348    0.0302 C.2      1 ZINC000018185774   -0.3100
4      C4     -1.2100    3.2948    0.0369 C.2      1 ZINC000018185774    0.1800
5      C5     -2.4908    4.0261    0.0594 C.ar     1 ZINC000018185774   -0.0500
6      C6     -3.6981    3.3232    0.0790 C.ar     1 ZINC000018185774   -0.0800
7      C7     -4.8942    4.0083    0.0999 C.ar     1 ZINC000018185774   -0.1300
8      C8     -4.9028    5.3960    0.1015 C.ar     1 ZINC000018185774    0.0900
9      O9     -6.0841    6.0663    0.1222 O.3      1 ZINC000018185774   -0.4900
10     C10    -3.7017    6.1039    0.0824 C.ar     1 ZINC000018185774    0.0800
11     O11    -3.7138    7.4638    0.0845 O.3      1 ZINC000018185774   -0.4800
12     C12    -2.4995    5.4241    0.0668 C.ar     1 ZINC000018185774   -0.0900
13     O13    -0.0658    3.9971    0.0244 O.3      1 ZINC000018185774   -0.2300
14     C14     1.1455    3.4014    0.0039 C.ar     1 ZINC000018185774    0.1900
15     C15     2.3074    4.1567   -0.0084 C.ar     1 ZINC000018185774   -0.2900
16     C16     3.5433    3.5285   -0.0300 C.ar     1 ZINC000018185774    0.3300
17     O17     4.6768    4.2755   -0.0424 O.3      1 ZINC000018185774   -0.6900
18     C18     3.6330    2.1411   -0.0387 C.ar     1 ZINC000018185774   -0.2900
19     C19     2.4847    1.3706   -0.0262 C.ar     1 ZINC000018185774    0.2200
20     O20     2.5700    0.0162   -0.0342 O.3      1 ZINC000018185774   -0.4900
21     C21     1.2334    1.9984    0.0010 C.ar     1 ZINC000018185774   -0.3700
22     H22    -2.1755    1.4071    0.0408 H        1 ZINC000018185774    0.1500
23     H23    -3.6944    2.2432    0.0775 H        1 ZINC000018185774    0.1400
24     H24    -5.8268    3.4638    0.1148 H        1 ZINC000018185774    0.1400
25     H25    -6.4113    6.2595    1.0114 H        1 ZINC000018185774    0.3900
26     H26    -3.7026    7.8559    0.9684 H        1 ZINC000018185774    0.3900
27     H27    -1.5684    5.9712    0.0524 H        1 ZINC000018185774    0.1500
28     H28     2.2501    5.2351   -0.0015 H        1 ZINC000018185774    0.1200
29     H29     4.6018    1.6640   -0.0556 H        1 ZINC000018185774    0.1200
30     H30     2.6074   -0.3807    0.8468 H        1 ZINC000018185774    0.3800
@<TRIPOS>BOND
1     1     2     2
2     2     21    1
3     2     3     1
4     3     4     2
5     3     22    1
6     4     5     1
7     4     13    1
8     5     12    ar
9     5     6     ar
10    6     7     ar
11    6     23    1
12    7     8     ar
13    7     24    1
14    8     9     1
15    8     10    ar
16    9     25    1
17    10    11    1
18    10    12    ar
19    11    26    1
20    12    27    1
21    13    14    1
22    14    21    ar
23    14    15    ar
24    15    16    ar
25    15    28    1
26    16    17    1
27    16    18    ar
28    18    19    ar
29    18    29    1
30    19    20    1
31    19    21    ar
32    20    30    1
@<TRIPOS>SUBSTRUCTURE
1   ZINC000018185774 1     RESIDUE    1   A     ZIN   1


@<TRIPOS>MOLECULE
C1=CC(=CC=C1/C=C/C2=CC(=CC(=C2)O)O)O
  29   30    0    0    0
SMALL
USER_CHARGES
NO_NAME
@<TRIPOS>ATOM
    1 O1       -0.0163     1.3543     0.0095 O.3    1 <0>      -0.5000
    2 C2        0.0021    -0.0041     0.0020 C.ar   1 <0>       0.1100
    3 C3        0.0057    -0.6897    -1.2060 C.ar   1 <0>      -0.1400
    4 C4        0.0244    -2.0675    -1.2186 C.ar   1 <0>      -0.0900
    5 C5        0.0397    -2.7751    -0.0132 C.ar   1 <0>      -0.0700
    6 C6        0.0601    -4.2484    -0.0213 C.2    1 <0>      -0.0900
    7 C7        0.0748    -4.9260     1.1377 C.2    1 <0>      -0.1100
    8 C8        0.0953    -6.3997     1.1296 C.ar   1 <0>      -0.0200
    9 C9        0.1053    -7.0937    -0.0826 C.ar   1 <0>      -0.1500
   10 C10       0.1250    -8.4782    -0.0849 C.ar   1 <0>       0.1300
   11 O11       0.1348    -9.1545    -1.2637 O.3    1 <0>      -0.5000
   12 C12       0.1353    -9.1763     1.1143 C.ar   1 <0>      -0.1700
   13 C13       0.1254    -8.4915     2.3212 C.ar   1 <0>       0.1300
   14 O14       0.1360    -9.1807     3.4924 O.3    1 <0>      -0.5000
   15 C15       0.1106    -7.1069     2.3341 C.ar   1 <0>      -0.1400
   16 C16       0.0359    -2.0807     1.1999 C.ar   1 <0>      -0.0900
   17 C17       0.0230    -0.7028     1.2023 C.ar   1 <0>      -0.1400
   18 H18       0.8616     1.7596     0.0033 H      1 <0>       0.3900
   19 H19      -0.0065    -0.1421    -2.1368 H      1 <0>       0.1300
   20 H20       0.0268    -2.5998    -2.1583 H      1 <0>       0.1300
   21 H21       0.0633    -4.7832    -0.9596 H      1 <0>       0.1300
   22 H22       0.0716    -4.3911     2.0760 H      1 <0>       0.1300
   23 H23       0.0973    -6.5513    -1.0164 H      1 <0>       0.1400
   24 H24       1.0209    -9.3377    -1.6047 H      1 <0>       0.3900
   25 H25       0.1507   -10.2562     1.1084 H      1 <0>       0.1400
   26 H26       1.0223    -9.3670     3.8312 H      1 <0>       0.3900
   27 H27       0.1029    -6.5748     3.2739 H      1 <0>       0.1400
   28 H28       0.0477    -2.6231     2.1337 H      1 <0>       0.1300
   29 H29       0.0204    -0.1653     2.1391 H      1 <0>       0.1300
@<TRIPOS>BOND
   1    1    2 1
   2    1   18 1
   3    2   17 ar
   4    2    3 ar
   5    3    4 ar
   6    3   19 1
   7    4    5 ar
   8    4   20 1
   9    5    6 1
  10    5   16 ar
  11    6    7 2
  12    6   21 1
  13    7    8 1
  14    7   22 1
  15    8   15 ar
  16    8    9 ar
  17    9   10 ar
  18    9   23 1
  19   10   11 1
  20   10   12 ar
  21   11   24 1
  22   12   13 ar
  23   12   25 1
  24   13   14 1
  25   13   15 ar
  26   14   26 1
  27   15   27 1
  28   16   17 ar
  29   16   28 1
  30   17   29 1


@<TRIPOS>MOLECULE
C1CCN(CC1)C(=O)/C=C/C=C/C2=CC3=C(C=C2)OCO3
  40   42    0    0    0
SMALL
USER_CHARGES
NO_NAME
@<TRIPOS>ATOM
    1 O1        0.0228    -0.0036    -0.0031 O.2    1 <0>      -0.5500
    2 C2       -0.0144     1.2136     0.0087 C.2    1 <0>       0.5500
    3 C3        1.1892     1.9585     0.0070 C.2    1 <0>      -0.2300
    4 C4        2.3838     1.3188     0.0941 C.2    1 <0>      -0.0100
    5 C5        3.5831     2.0611     0.0924 C.2    1 <0>      -0.1400
    6 C6        4.7742     1.4231     0.1793 C.2    1 <0>      -0.0600
    7 C7        6.0232     2.1962     0.1775 C.ar   1 <0>      -0.0600
    8 C8        5.9847     3.5928     0.0920 C.ar   1 <0>      -0.0900
    9 C9        7.1578     4.3149     0.0911 C.ar   1 <0>      -0.1000
   10 C10       8.3809     3.6627     0.1742 C.ar   1 <0>       0.0400
   11 O11       9.6580     4.1418     0.1910 O.3    1 <0>      -0.3100
   12 C12      10.4670     3.0649     0.6995 C.3    1 <0>       0.2100
   13 O13       9.7346     1.8816     0.3303 O.3    1 <0>      -0.3100
   14 C14       8.4275     2.2697     0.2598 C.ar   1 <0>       0.0300
   15 C15       7.2565     1.5388     0.2672 C.ar   1 <0>      -0.0800
   16 N16      -1.2017     1.8514     0.0178 N.am   1 <0>      -0.6100
   17 C17      -1.2659     3.3153    -0.0903 C.3    1 <0>       0.1000
   18 C18      -2.2026     3.6837    -1.2451 C.3    1 <0>      -0.1400
   19 C19      -3.5595     3.0092    -1.0311 C.3    1 <0>      -0.1200
   20 C20      -3.3797     1.4894    -1.0212 C.3    1 <0>      -0.1400
   21 C21      -2.4566     1.0956     0.1300 C.3    1 <0>       0.1100
   22 H22       1.1575     3.0358    -0.0635 H      1 <0>       0.1300
   23 H23       2.4155     0.2415     0.1646 H      1 <0>       0.1300
   24 H24       3.5514     3.1383     0.0219 H      1 <0>       0.1300
   25 H25       4.8060     0.3459     0.2498 H      1 <0>       0.1300
   26 H26       5.0356     4.1041     0.0265 H      1 <0>       0.1400
   27 H27       7.1262     5.3924     0.0251 H      1 <0>       0.1400
   28 H28      11.4500     3.0693     0.2286 H      1 <0>       0.1300
   29 H29      10.5602     3.1349     1.7832 H      1 <0>       0.0900
   30 H30       7.2915     0.4618     0.3393 H      1 <0>       0.1400
   31 H31      -1.6503     3.7339     0.8398 H      1 <0>       0.0700
   32 H32      -0.2696     3.7111    -0.2874 H      1 <0>       0.0900
   33 H33      -2.3347     4.7653    -1.2755 H      1 <0>       0.0800
   34 H34      -1.7713     3.3429    -2.1864 H      1 <0>       0.0700
   35 H35      -3.9790     3.3315    -0.0781 H      1 <0>       0.0700
   36 H36      -4.2358     3.2896    -1.8387 H      1 <0>       0.0700
   37 H37      -4.3497     1.0092    -0.8921 H      1 <0>       0.0800
   38 H38      -2.9373     1.1692    -1.9645 H      1 <0>       0.0700
   39 H39      -2.2469     0.0271     0.0811 H      1 <0>       0.0900
   40 H40      -2.9356     1.3329     1.0800 H      1 <0>       0.0700
@<TRIPOS>BOND
   1    1    2 2
   2    2    3 1
   3    2   16 am
   4    3    4 2
   5    3   22 1
   6    4    5 1
   7    4   23 1
   8    5    6 2
   9    5   24 1
  10    6    7 1
  11    6   25 1
  12    7   15 ar
  13    7    8 ar
  14    8    9 ar
  15    8   26 1
  16    9   10 ar
  17    9   27 1
  18   10   14 ar
  19   10   11 1
  20   11   12 1
  21   12   13 1
  22   12   28 1
  23   12   29 1
  24   13   14 1
  25   14   15 ar
  26   15   30 1
  27   16   21 1
  28   16   17 1
  29   17   18 1
  30   17   31 1
  31   17   32 1
  32   18   19 1
  33   18   33 1
  34   18   34 1
  35   19   20 1
  36   19   35 1
  37   19   36 1
  38   20   21 1
  39   20   37 1
  40   20   38 1
  41   21   39 1
  42   21   40 1


@<TRIPOS>MOLECULE
COC1=C(C2=C[N+]3=C(C=C2C=C1)C4=CC5=C(C=C4CC3)OCO5)OC
43    47    1     0     0
SMALL
USER_CHARGES
@<TRIPOS>ATOM
1      C1     -0.0173    1.4248    0.0099 C.3      1 ZINC000003779067    0.0100
2      O2      0.0021   -0.0041    0.0020 O.3      1 ZINC000003779067   -0.2900
3      C3     -1.2014   -0.6380    0.0101 C.ar     1 ZINC000003779067    0.1400
4      C4     -2.3764    0.1140    0.0196 C.ar     1 ZINC000003779067   -0.1200
5      C5     -3.5975   -0.4914    0.0270 C.ar     1 ZINC000003779067   -0.0700
6      C6     -3.6813   -1.8906    0.0243 C.ar     1 ZINC000003779067   -0.0100
7      C7     -4.9129   -2.5656    0.0283 C.ar     1 ZINC000003779067   -0.0600
8      C8     -4.9156   -3.9484    0.0264 C.ar     1 ZINC000003779067    0.1400
9      C9     -6.2171   -4.6673    0.0293 C.ar     1 ZINC000003779067   -0.0900
10     C10    -7.3743   -4.0227   -0.4165 C.ar     1 ZINC000003779067   -0.0600
11     C11    -8.5549   -4.7488   -0.3764 C.ar     1 ZINC000003779067    0.0400
12     C12    -8.5813   -6.0724    0.0931 C.ar     1 ZINC000003779067    0.0800
13     C13    -7.4253   -6.7088    0.5314 C.ar     1 ZINC000003779067   -0.0900
14     C14    -6.2466   -5.9851    0.4857 C.ar     1 ZINC000003779067   -0.0600
15     C15    -4.9502   -6.6251    0.9184 C.3      1 ZINC000003779067   -0.1000
16     C16    -3.8193   -6.1208    0.0226 C.3      1 ZINC000003779067    0.0500
17     N17    -3.7776   -4.6539    0.0215 N.ar     1 ZINC000003779067   -0.3300
18     C18    -2.6001   -4.0669    0.0159 C.ar     1 ZINC000003779067    0.2000
19     C19    -2.4928   -2.6694    0.0161 C.ar     1 ZINC000003779067   -0.0800
20     C20    -1.2453   -2.0196    0.0031 C.ar     1 ZINC000003779067    0.0900
21     O21    -0.0950   -2.7428   -0.0113 O.3      1 ZINC000003779067   -0.3100
22     C22     0.4398   -3.0857   -1.2913 C.3      1 ZINC000003779067    0.0300
23     O23    -9.8512   -6.5325    0.0258 O.3      1 ZINC000003779067   -0.2900
24     C24   -10.6796   -5.3606   -0.1215 C.3      1 ZINC000003779067    0.2100
25     O25    -9.8078   -4.3901   -0.7379 O.3      1 ZINC000003779067   -0.3000
26     H26     1.0053    1.8021    0.0021 H        1 ZINC000003779067    0.1200
27     H27    -0.5445    1.7859   -0.8732 H        1 ZINC000003779067    0.0700
28     H28    -0.5275    1.7763    0.9067 H        1 ZINC000003779067    0.0700
29     H29    -2.3175    1.1924    0.0214 H        1 ZINC000003779067    0.1600
30     H30    -4.4978    0.1051    0.0353 H        1 ZINC000003779067    0.1600
31     H31    -5.8416   -2.0143    0.0333 H        1 ZINC000003779067    0.1800
32     H32    -7.3500   -3.0045   -0.7758 H        1 ZINC000003779067    0.1600
33     H33    -7.4466   -7.7263    0.8931 H        1 ZINC000003779067    0.1600
34     H34    -4.7406   -6.3590    1.9544 H        1 ZINC000003779067    0.1100
35     H35    -5.0308   -7.7083    0.8284 H        1 ZINC000003779067    0.1300
36     H36    -2.8691   -6.5073    0.3911 H        1 ZINC000003779067    0.1400
37     H37    -3.9810   -6.4761   -0.9951 H        1 ZINC000003779067    0.1300
38     H38    -1.7042   -4.6701    0.0117 H        1 ZINC000003779067    0.2100
39     H39     0.6591   -2.1754   -1.8492 H        1 ZINC000003779067    0.0600
40     H40     1.3562   -3.6611   -1.1599 H        1 ZINC000003779067    0.1100
41     H41    -0.2881   -3.6823   -1.8412 H        1 ZINC000003779067    0.0500
42     H42   -11.5312   -5.5737   -0.7677 H        1 ZINC000003779067    0.1400
43     H43   -11.0172   -5.0065    0.8525 H        1 ZINC000003779067    0.1000
@<TRIPOS>BOND
1     1     2     1
2     1     26    1
3     1     27    1
4     1     28    1
5     2     3     1
6     3     20    ar
7     3     4     ar
8     4     5     ar
9     4     29    1
10    5     6     ar
11    5     30    1
12    6     19    ar
13    6     7     ar
14    7     8     ar
15    7     31    1
16    8     17    ar
17    8     9     1
18    9     14    ar
19    9     10    ar
20    10    11    ar
21    10    32    1
22    11    25    1
23    11    12    ar
24    12    13    ar
25    12    23    1
26    13    14    ar
27    13    33    1
28    14    15    1
29    15    16    1
30    15    34    1
31    15    35    1
32    16    17    1
33    16    36    1
34    16    37    1
35    17    18    ar
36    18    19    ar
37    18    38    1
38    19    20    ar
39    20    21    1
40    21    22    1
41    22    39    1
42    22    40    1
43    22    41    1
44    23    24    1
45    24    25    1
46    24    42    1
47    24    43    1
@<TRIPOS>SUBSTRUCTURE
1   ZINC000003779067 1     RESIDUE    1   A     ZIN   1


@<TRIPOS>MOLECULE
CCCCCC(=O)[C@@H]1[C@H]2CC3=C(COC(=C3)/C=C/C)C(=O)[C@@]2(OC1=O)C
52    54    1     0     0
SMALL
USER_CHARGES
@<TRIPOS>ATOM
1      C1      0.8703    3.8054    0.3199 C.3      1 ZINC000014594767   -0.1400
2      C2      0.7691    2.3514   -0.0632 C.2      1 ZINC000014594767   -0.0700
3      C3      1.2133    1.4097    0.7703 C.2      1 ZINC000014594767   -0.1700
4      C4      1.7999    1.7890    2.0589 C.2      1 ZINC000014594767    0.2100
5      C5      2.2630    0.8133    2.9151 C.2      1 ZINC000014594767   -0.2800
6      C6      2.7331    1.1716    4.1839 C.2      1 ZINC000014594767    0.0800
7      C7      2.5519    2.4679    4.6231 C.2      1 ZINC000014594767   -0.3300
8      C8      1.7531    3.4315    3.7812 C.3      1 ZINC000014594767    0.1300
9      O9      1.8889    3.0940    2.3990 O.3      1 ZINC000014594767   -0.3000
10     C10     3.1086    2.9218    5.8351 C.2      1 ZINC000014594767    0.4300
11     O11     2.9398    4.0600    6.2294 O.2      1 ZINC000014594767   -0.4400
12     C12     3.9137    1.9368    6.6087 C.3      1 ZINC000014594767    0.0500
13     C13     5.2947    1.8039    5.9638 C.3      1 ZINC000014594767   -0.2000
14     O14     4.0908    2.1125    8.0209 O.3      1 ZINC000014594767   -0.3000
15     C15     4.2177    0.8953    8.6084 C.2      1 ZINC000014594767    0.4900
16     O16     4.4707    0.7039    9.7742 O.2      1 ZINC000014594767   -0.4200
17     C17     3.9902   -0.1957    7.5604 C.3      1 ZINC000014594767   -0.2000
18     H18     3.4161   -1.0241    7.9755 H        1 ZINC000014594767    0.1600
19     C19     5.2982   -0.6796    6.9895 C.2      1 ZINC000014594767    0.3800
20     O20     5.3200   -1.2384    5.9192 O.2      1 ZINC000014594767   -0.4300
21     C21     6.5790   -0.4662    7.7544 C.3      1 ZINC000014594767   -0.1800
22     C22     7.7504   -1.0469    6.9596 C.3      1 ZINC000014594767   -0.1100
23     C23     9.0508   -0.8302    7.7361 C.3      1 ZINC000014594767   -0.1200
24     C24    10.2222   -1.4108    6.9413 C.3      1 ZINC000014594767   -0.1200
25     C25    11.5226   -1.1942    7.7178 C.3      1 ZINC000014594767   -0.1500
26     C26     3.1743    0.5677    6.5046 C.3      1 ZINC000014594767   -0.1000
27     H27     2.1229    0.6447    6.7815 H        1 ZINC000014594767    0.1200
28     C28     3.3552    0.1084    5.0681 C.3      1 ZINC000014594767   -0.1000
29     H29     1.9162    4.0672    0.4795 H        1 ZINC000014594767    0.0800
30     H30     0.4596    4.4214   -0.4802 H        1 ZINC000014594767    0.0600
31     H31     0.3081    3.9794    1.2374 H        1 ZINC000014594767    0.0800
32     H32     0.3369    2.0720   -1.0127 H        1 ZINC000014594767    0.1300
33     H33     1.1408    0.3677    0.4958 H        1 ZINC000014594767    0.1500
34     H34     2.2628   -0.2224    2.6088 H        1 ZINC000014594767    0.1500
35     H35     0.7030    3.3790    4.0687 H        1 ZINC000014594767    0.0700
36     H36     2.1213    4.4447    3.9426 H        1 ZINC000014594767    0.1200
37     H37     5.7437    2.7917    5.8597 H        1 ZINC000014594767    0.0900
38     H38     5.9306    1.1801    6.5920 H        1 ZINC000014594767    0.0800
39     H39     5.1937    1.3453    4.9801 H        1 ZINC000014594767    0.1000
40     H40     6.7374    0.6013    7.9073 H        1 ZINC000014594767    0.1000
41     H41     6.5126   -0.9658    8.7209 H        1 ZINC000014594767    0.1100
42     H42     7.5921   -2.1144    6.8067 H        1 ZINC000014594767    0.0700
43     H43     7.8168   -0.5473    5.9931 H        1 ZINC000014594767    0.0700
44     H44     9.2091    0.2373    7.8890 H        1 ZINC000014594767    0.0600
45     H45     8.9844   -1.3298    8.7026 H        1 ZINC000014594767    0.0700
46     H46    10.0638   -2.4784    6.7884 H        1 ZINC000014594767    0.0600
47     H47    10.2886   -0.9113    5.9748 H        1 ZINC000014594767    0.0600
48     H48    12.3571   -1.6078    7.1516 H        1 ZINC000014594767    0.0500
49     H49    11.6809   -0.1266    7.8707 H        1 ZINC000014594767    0.0500
50     H50    11.4561   -1.6937    8.6843 H        1 ZINC000014594767    0.0500
51     H51     2.8496   -0.8451    4.9157 H        1 ZINC000014594767    0.1100
52     H52     4.4164    0.0088    4.8400 H        1 ZINC000014594767    0.1300
@<TRIPOS>BOND
1     1     2     1
2     1     29    1
3     1     30    1
4     1     31    1
5     2     3     2
6     2     32    1
7     3     4     1
8     3     33    1
9     4     9     1
10    4     5     2
11    5     6     1
12    5     34    1
13    6     28    1
14    6     7     2
15    7     8     1
16    7     10    1
17    8     9     1
18    8     35    1
19    8     36    1
20    10    11    2
21    10    12    1
22    12    26    1
23    12    13    1
24    12    14    1
25    13    37    1
26    13    38    1
27    13    39    1
28    14    15    1
29    15    16    2
30    15    17    1
31    17    18    1
32    17    19    1
33    17    26    1
34    19    20    2
35    19    21    1
36    21    22    1
37    21    40    1
38    21    41    1
39    22    23    1
40    22    42    1
41    22    43    1
42    23    24    1
43    23    44    1
44    23    45    1
45    24    25    1
46    24    46    1
47    24    47    1
48    25    48    1
49    25    49    1
50    25    50    1
51    26    27    1
52    26    28    1
53    28    51    1
54    28    52    1
@<TRIPOS>SUBSTRUCTURE
1   ZINC000014594767 1     RESIDUE    1   A     ZIN   1


@<TRIPOS>MOLECULE
CC1=C(C(C[C@@H](C1=O)O)(C)C)/C=C/C(=C/C=C/C(=C/C=C/C=C(/C=C/C=C(/C=C/C2=C(C(=O)[C@H](CC2(C)C)O)C)\C)\C)/C)/C
96    97    1     0     0
SMALL
USER_CHARGES
@<TRIPOS>ATOM
1      C1      1.5955    1.6485    1.2037 C.3      1 ZINC000017653967   -0.1300
2      C2      1.6148    0.1419    1.2285 C.2      1 ZINC000017653967   -0.0900
3      C3      1.6122   -0.5371    2.4503 C.2      1 ZINC000017653967   -0.1000
4      C4      1.5919    0.1724    3.6342 C.2      1 ZINC000017653967   -0.1300
5      C5      1.5893   -0.5066    4.8560 C.2      1 ZINC000017653967   -0.1000
6      C6      1.5690    0.2030    6.0399 C.2      1 ZINC000017653967   -0.1000
7      C7      1.5497    1.7097    6.0151 C.3      1 ZINC000017653967   -0.1300
8      C8      1.5664   -0.4760    7.2617 C.2      1 ZINC000017653967   -0.0700
9      C9      1.5461    0.2335    8.4456 C.2      1 ZINC000017653967   -0.1500
10     C10     1.4279   -0.4422    9.6635 C.2      1 ZINC000017653967    0.0200
11     C11     0.3543   -1.2772    9.8758 C.2      1 ZINC000017653967   -0.2100
12     C12    -0.6731   -1.4488    8.7868 C.3      1 ZINC000017653967   -0.1100
13     C13     0.1974   -1.9679   11.0770 C.2      1 ZINC000017653967    0.3600
14     O14    -0.7634   -2.6977   11.2310 O.2      1 ZINC000017653967   -0.4600
15     C15     1.2066   -1.8192   12.1856 C.3      1 ZINC000017653967    0.0600
16     H16     1.9809   -2.5786   12.0772 H        1 ZINC000017653967    0.0900
17     O17     0.5558   -1.9779   13.4479 O.3      1 ZINC000017653967   -0.5500
18     C18     1.8408   -0.4274   12.1074 C.3      1 ZINC000017653967   -0.1000
19     C19     2.4801   -0.2522   10.7241 C.3      1 ZINC000017653967   -0.0400
20     C20     3.5930   -1.2861   10.5415 C.3      1 ZINC000017653967   -0.1400
21     C21     3.0670    1.1560   10.6077 C.3      1 ZINC000017653967   -0.1400
22     C22     1.6351   -0.5677    0.0446 C.2      1 ZINC000017653967   -0.1200
23     C23     1.6377    0.1113   -1.1772 C.2      1 ZINC000017653967   -0.1200
24     C24     1.6580   -0.5983   -2.3611 C.2      1 ZINC000017653967   -0.1200
25     C25     1.6607    0.0807   -3.5829 C.2      1 ZINC000017653967   -0.1200
26     C26     1.6809   -0.6288   -4.7668 C.2      1 ZINC000017653967   -0.0900
27     C27     1.7002   -2.1355   -4.7420 C.3      1 ZINC000017653967   -0.1300
28     C28     1.6836    0.0502   -5.9886 C.2      1 ZINC000017653967   -0.1000
29     C29     1.7038   -0.6594   -7.1725 C.2      1 ZINC000017653967   -0.1300
30     C30     1.7065    0.0196   -8.3943 C.2      1 ZINC000017653967   -0.1000
31     C31     1.7268   -0.6900   -9.5782 C.2      1 ZINC000017653967   -0.1000
32     C32     1.7461   -2.1966   -9.5533 C.3      1 ZINC000017653967   -0.1300
33     C33     1.7294   -0.0110  -10.8000 C.2      1 ZINC000017653967   -0.0700
34     C34     1.7497   -0.7205  -11.9839 C.2      1 ZINC000017653967   -0.1500
35     C35     1.6369   -0.0478  -13.2039 C.2      1 ZINC000017653967    0.0200
36     C36     0.5461    0.7591  -13.4365 C.2      1 ZINC000017653967   -0.2100
37     C37    -0.5056    0.9039  -12.3670 C.3      1 ZINC000017653967   -0.1100
38     C38     0.3939    1.4458  -14.6406 C.2      1 ZINC000017653967    0.3600
39     O39    -0.5824    2.1506  -14.8127 O.2      1 ZINC000017653967   -0.4600
40     C40     1.4272    1.3236  -15.7301 C.3      1 ZINC000017653967    0.0600
41     H41     2.1794    2.1029  -15.6074 H        1 ZINC000017653967    0.0900
42     O42     0.7962    1.4657  -17.0043 O.3      1 ZINC000017653967   -0.5500
43     C43     2.0956   -0.0513  -15.6396 C.3      1 ZINC000017653967   -0.1000
44     C44     2.7132   -0.2102  -14.2446 C.3      1 ZINC000017653967   -0.0400
45     C45     3.7954    0.8522  -14.0415 C.3      1 ZINC000017653967   -0.1400
46     C46     3.3341   -1.6027  -14.1169 C.3      1 ZINC000017653967   -0.1400
47     H47     2.6184    2.0251    1.2073 H        1 ZINC000017653967    0.0700
48     H48     1.0856    1.9906    0.3031 H        1 ZINC000017653967    0.0700
49     H49     1.0686    2.0197    2.0827 H        1 ZINC000017653967    0.0700
50     H50     1.6260   -1.6169    2.4681 H        1 ZINC000017653967    0.1200
51     H51     1.5781    1.2522    3.6164 H        1 ZINC000017653967    0.1200
52     H52     1.6031   -1.5863    4.8738 H        1 ZINC000017653967    0.1200
53     H53     0.5175    2.0596    5.9995 H        1 ZINC000017653967    0.0700
54     H54     2.0503    2.0941    6.9037 H        1 ZINC000017653967    0.0700
55     H55     2.0673    2.0650    5.1241 H        1 ZINC000017653967    0.0700
56     H56     1.5802   -1.5558    7.2795 H        1 ZINC000017653967    0.1200
57     H57     1.6215    1.3108    8.4308 H        1 ZINC000017653967    0.1400
58     H58    -0.3835   -2.2783    8.1416 H        1 ZINC000017653967    0.0700
59     H59    -1.6449   -1.6583    9.2338 H        1 ZINC000017653967    0.0700
60     H60    -0.7339   -0.5341    8.1972 H        1 ZINC000017653967    0.0700
61     H61     0.1286   -2.8375   13.5648 H        1 ZINC000017653967    0.3900
62     H62     1.0735    0.3322   12.2572 H        1 ZINC000017653967    0.0800
63     H63     2.6065   -0.3315   12.8771 H        1 ZINC000017653967    0.0900
64     H64     3.1743   -2.2891   10.6237 H        1 ZINC000017653967    0.0600
65     H65     4.0471   -1.1614    9.5585 H        1 ZINC000017653967    0.0700
66     H66     4.3506   -1.1443   11.3123 H        1 ZINC000017653967    0.0700
67     H67     3.8722    1.2750   11.3326 H        1 ZINC000017653967    0.0700
68     H68     3.4591    1.3042    9.6015 H        1 ZINC000017653967    0.0700
69     H69     2.2877    1.8919   10.8060 H        1 ZINC000017653967    0.0600
70     H70     1.6489   -1.6475    0.0624 H        1 ZINC000017653967    0.1200
71     H71     1.6239    1.1911   -1.1950 H        1 ZINC000017653967    0.1200
72     H72     1.6719   -1.6780   -2.3433 H        1 ZINC000017653967    0.1200
73     H73     1.6468    1.1605   -3.6007 H        1 ZINC000017653967    0.1200
74     H74     0.6774   -2.5121   -4.7456 H        1 ZINC000017653967    0.0700
75     H75     2.2272   -2.5066   -5.6210 H        1 ZINC000017653967    0.0700
76     H76     2.2101   -2.4776   -3.8413 H        1 ZINC000017653967    0.0700
77     H77     1.6697    1.1299   -6.0064 H        1 ZINC000017653967    0.1200
78     H78     1.7177   -1.7392   -7.1547 H        1 ZINC000017653967    0.1200
79     H79     1.6927    1.0994   -8.4121 H        1 ZINC000017653967    0.1200
80     H80     0.7232   -2.5732   -9.5570 H        1 ZINC000017653967    0.0700
81     H81     2.2730   -2.5678  -10.4324 H        1 ZINC000017653967    0.0700
82     H82     2.2560   -2.5387   -8.6527 H        1 ZINC000017653967    0.0700
83     H83     1.7156    1.0688  -10.8178 H        1 ZINC000017653967    0.1200
84     H84     1.8527   -1.7955  -11.9674 H        1 ZINC000017653967    0.1400
85     H85    -0.2498    1.7404  -11.7167 H        1 ZINC000017653967    0.0700
86     H86    -1.4739    1.0882  -12.8321 H        1 ZINC000017653967    0.0700
87     H87    -0.5537   -0.0123  -11.7784 H        1 ZINC000017653967    0.0700
88     H88     0.3491    2.3140  -17.1295 H        1 ZINC000017653967    0.3900
89     H89     1.3512   -0.8304  -15.8036 H        1 ZINC000017653967    0.0800
90     H90     2.8778   -0.1271  -16.3949 H        1 ZINC000017653967    0.0900
91     H91     3.3524    1.8440  -14.1318 H        1 ZINC000017653967    0.0600
92     H92     4.2341    0.7390  -13.0501 H        1 ZINC000017653967    0.0700
93     H93     4.5707    0.7303  -14.7980 H        1 ZINC000017653967    0.0700
94     H94     4.1556   -1.7007  -14.8266 H        1 ZINC000017653967    0.0700
95     H95     3.7110   -1.7409  -13.1035 H        1 ZINC000017653967    0.0700
96     H96     2.5781   -2.3585  -14.3296 H        1 ZINC000017653967    0.0600
@<TRIPOS>BOND
1     1     2     1
2     1     47    1
3     1     48    1
4     1     49    1
5     2     3     1
6     2     22    2
7     3     4     2
8     3     50    1
9     4     5     1
10    4     51    1
11    5     6     2
12    5     52    1
13    6     7     1
14    6     8     1
15    7     53    1
16    7     54    1
17    7     55    1
18    8     9     2
19    8     56    1
20    9     10    1
21    9     57    1
22    10    19    1
23    10    11    2
24    11    12    1
25    11    13    1
26    12    58    1
27    12    59    1
28    12    60    1
29    13    14    2
30    13    15    1
31    15    16    1
32    15    17    1
33    15    18    1
34    17    61    1
35    18    19    1
36    18    62    1
37    18    63    1
38    19    20    1
39    19    21    1
40    20    64    1
41    20    65    1
42    20    66    1
43    21    67    1
44    21    68    1
45    21    69    1
46    22    23    1
47    22    70    1
48    23    24    2
49    23    71    1
50    24    25    1
51    24    72    1
52    25    26    2
53    25    73    1
54    26    27    1
55    26    28    1
56    27    74    1
57    27    75    1
58    27    76    1
59    28    29    2
60    28    77    1
61    29    30    1
62    29    78    1
63    30    31    2
64    30    79    1
65    31    32    1
66    31    33    1
67    32    80    1
68    32    81    1
69    32    82    1
70    33    34    2
71    33    83    1
72    34    35    1
73    34    84    1
74    35    44    1
75    35    36    2
76    36    37    1
77    36    38    1
78    37    85    1
79    37    86    1
80    37    87    1
81    38    39    2
82    38    40    1
83    40    41    1
84    40    42    1
85    40    43    1
86    42    88    1
87    43    44    1
88    43    89    1
89    43    90    1
90    44    45    1
91    44    46    1
92    45    91    1
93    45    92    1
94    45    93    1
95    46    94    1
96    46    95    1
97    46    96    1
@<TRIPOS>SUBSTRUCTURE
1   ZINC000017653967 1     RESIDUE    1   A     ZIN   1


@<TRIPOS>MOLECULE
CCCCCCCC(=O)[C@@H]1[C@H]2CC3=C(COC(=C3)/C=C/C)C(=O)[C@@]2(OC1=O)C
58    60    1     0     0
SMALL
USER_CHARGES
@<TRIPOS>ATOM
1      C1     -0.4287    9.7223   -7.6967 C.3      1 ZINC000058568788   -0.1400
2      C2     -0.8801    8.3167   -7.3941 C.2      1 ZINC000058568788   -0.0700
3      C3     -0.1838    7.5611   -6.5438 C.2      1 ZINC000058568788   -0.1700
4      C4     -0.6228    6.1940   -6.2494 C.2      1 ZINC000058568788    0.2100
5      C5      0.0980    5.4149   -5.3706 C.2      1 ZINC000058568788   -0.2800
6      C6     -0.2547    4.0734   -5.1879 C.2      1 ZINC000058568788    0.0800
7      C7     -1.1942    3.5027   -6.0211 C.2      1 ZINC000058568788   -0.3200
8      C8     -1.7657    4.3121   -7.1594 C.3      1 ZINC000058568788    0.1300
9      O9     -1.7337    5.7010   -6.8403 O.3      1 ZINC000058568788   -0.3000
10     C10    -1.5974    2.1608   -5.8760 C.2      1 ZINC000058568788    0.4300
11     O11    -2.4773    1.6849   -6.5679 O.2      1 ZINC000058568788   -0.4400
12     C12    -0.9012    1.3507   -4.8414 C.3      1 ZINC000058568788    0.0500
13     C13     0.4577    0.8991   -5.3803 C.3      1 ZINC000058568788   -0.1800
14     O14    -1.5743    0.2268   -4.2414 O.3      1 ZINC000058568788   -0.3000
15     C15    -0.8898   -0.0486   -3.0940 C.2      1 ZINC000058568788    0.5000
16     O16    -0.8135   -1.1318   -2.5643 O.2      1 ZINC000058568788   -0.4200
17     C17    -0.2349    1.2354   -2.5884 C.3      1 ZINC000058568788   -0.2000
18     H18     0.8507    1.1377   -2.5839 H        1 ZINC000058568788    0.1500
19     C19    -0.7416    1.5850   -1.2129 C.2      1 ZINC000058568788    0.3800
20     O20    -1.7316    2.2653   -1.0890 O.2      1 ZINC000058568788   -0.4300
21     C21    -0.0127    1.0858    0.0080 C.3      1 ZINC000058568788   -0.1700
22     C22    -0.7288    1.5792    1.2668 C.3      1 ZINC000058568788   -0.1100
23     C23     0.0111    1.0724    2.5063 C.3      1 ZINC000058568788   -0.1200
24     C24    -0.7050    1.5658    3.7651 C.3      1 ZINC000058568788   -0.1200
25     C25     0.0350    1.0590    5.0047 C.3      1 ZINC000058568788   -0.1200
26     C26    -0.6811    1.5524    6.2635 C.3      1 ZINC000058568788   -0.1300
27     C27     0.0589    1.0456    7.5030 C.3      1 ZINC000058568788   -0.1500
28     C28    -0.6826    2.2820   -3.6114 C.3      1 ZINC000058568788   -0.1100
29     H29    -1.6140    2.7576   -3.3038 H        1 ZINC000058568788    0.1200
30     C30     0.3659    3.2982   -4.0398 C.3      1 ZINC000058568788   -0.0900
31     H31     0.5730    9.6977   -8.1258 H        1 ZINC000058568788    0.0800
32     H32    -1.1172   10.1800   -8.4071 H        1 ZINC000058568788    0.0700
33     H33    -0.4154   10.3057   -6.7761 H        1 ZINC000058568788    0.0800
34     H34    -1.7676    7.9212   -7.8658 H        1 ZINC000058568788    0.1300
35     H35     0.7037    7.9566   -6.0721 H        1 ZINC000058568788    0.1500
36     H36     0.9296    5.8372   -4.8261 H        1 ZINC000058568788    0.1500
37     H37    -1.1774    4.1347   -8.0597 H        1 ZINC000058568788    0.0700
38     H38    -2.7966    4.0062   -7.3382 H        1 ZINC000058568788    0.1200
39     H39     0.3100    0.1386   -6.1470 H        1 ZINC000058568788    0.0900
40     H40     0.9796    1.7533   -5.8117 H        1 ZINC000058568788    0.0900
41     H41     1.0516    0.4838   -4.5661 H        1 ZINC000058568788    0.0800
42     H42     0.0021   -0.0041    0.0020 H        1 ZINC000058568788    0.1100
43     H43     1.0099    1.4631    0.0003 H        1 ZINC000058568788    0.1100
44     H44    -0.7436    2.6691    1.2728 H        1 ZINC000058568788    0.0700
45     H45    -1.7514    1.2020    1.2746 H        1 ZINC000058568788    0.0700
46     H46     0.0259   -0.0175    2.5003 H        1 ZINC000058568788    0.0600
47     H47     1.0337    1.4497    2.4986 H        1 ZINC000058568788    0.0600
48     H48    -0.7198    2.6557    3.7711 H        1 ZINC000058568788    0.0600
49     H49    -1.7276    1.1885    3.7729 H        1 ZINC000058568788    0.0600
50     H50     0.0498   -0.0309    4.9987 H        1 ZINC000058568788    0.0600
51     H51     1.0576    1.4363    4.9969 H        1 ZINC000058568788    0.0600
52     H52    -0.6959    2.6423    6.2695 H        1 ZINC000058568788    0.0600
53     H53    -1.7037    1.1751    6.2712 H        1 ZINC000058568788    0.0600
54     H54     1.0815    1.4228    7.4953 H        1 ZINC000058568788    0.0500
55     H55    -0.4513    1.3971    8.3998 H        1 ZINC000058568788    0.0500
56     H56     0.0736   -0.0443    7.4970 H        1 ZINC000058568788    0.0500
57     H57     1.2727    2.7947   -4.3749 H        1 ZINC000058568788    0.1100
58     H58     0.5955    3.9718   -3.2141 H        1 ZINC000058568788    0.1000
@<TRIPOS>BOND
1     1     2     1
2     1     31    1
3     1     32    1
4     1     33    1
5     2     3     2
6     2     34    1
7     3     4     1
8     3     35    1
9     4     9     1
10    4     5     2
11    5     6     1
12    5     36    1
13    6     30    1
14    6     7     2
15    7     8     1
16    7     10    1
17    8     9     1
18    8     37    1
19    8     38    1
20    10    11    2
21    10    12    1
22    12    28    1
23    12    13    1
24    12    14    1
25    13    39    1
26    13    40    1
27    13    41    1
28    14    15    1
29    15    16    2
30    15    17    1
31    17    18    1
32    17    19    1
33    17    28    1
34    19    20    2
35    19    21    1
36    21    22    1
37    21    42    1
38    21    43    1
39    22    23    1
40    22    44    1
41    22    45    1
42    23    24    1
43    23    46    1
44    23    47    1
45    24    25    1
46    24    48    1
47    24    49    1
48    25    26    1
49    25    50    1
50    25    51    1
51    26    27    1
52    26    52    1
53    26    53    1
54    27    54    1
55    27    55    1
56    27    56    1
57    28    29    1
58    28    30    1
59    30    57    1
60    30    58    1
@<TRIPOS>SUBSTRUCTURE
1   ZINC000058568788 1     RESIDUE    1   A     ZIN   1


@<TRIPOS>MOLECULE
COC1=CC=C(C=C1)C2=COC3=CC(=CC(=C3C2=O)O)O
32    34    1     0     0
SMALL
USER_CHARGES
@<TRIPOS>ATOM
1      C1     -0.0173    1.4248    0.0099 C.3      1 ZINC000018847037    0.0300
2      O2      0.0021   -0.0041    0.0020 O.3      1 ZINC000018847037   -0.3200
3      C3      0.6259   -0.6184    1.0416 C.ar     1 ZINC000018847037    0.1200
4      C4      1.2017    0.1413    2.0505 C.ar     1 ZINC000018847037   -0.2100
5      C5      1.8355   -0.4792    3.1068 C.ar     1 ZINC000018847037   -0.0700
6      C6      1.8969   -1.8706    3.1607 C.ar     1 ZINC000018847037   -0.0400
7      C7      2.5773   -2.5411    4.2955 C.2      1 ZINC000018847037   -0.2600
8      C8      2.0902   -2.4421    5.5591 C.2      1 ZINC000018847037    0.1200
9      O9      2.6576   -3.0404    6.6069 O.3      1 ZINC000018847037   -0.2200
10     C10     3.9154   -3.5174    6.5438 C.ar     1 ZINC000018847037    0.1800
11     C11     4.6068   -3.8329    7.7052 C.ar     1 ZINC000018847037   -0.2900
12     C12     5.8974   -4.3323    7.6328 C.ar     1 ZINC000018847037    0.3200
13     O13     6.5646   -4.6350    8.7756 O.3      1 ZINC000018847037   -0.6900
14     C14     6.5170   -4.5275    6.4032 C.ar     1 ZINC000018847037   -0.2900
15     C15     5.8475   -4.2175    5.2336 C.ar     1 ZINC000018847037    0.2200
16     O16     6.4460   -4.4099    4.0310 O.3      1 ZINC000018847037   -0.4900
17     C17     4.5472   -3.7036    5.3006 C.ar     1 ZINC000018847037   -0.3700
18     C18     3.8002   -3.3404    4.0828 C.2      1 ZINC000018847037    0.4400
19     O19     4.1715   -3.6757    2.9709 O.2      1 ZINC000018847037   -0.4900
20     C20     1.3173   -2.6308    2.1463 C.ar     1 ZINC000018847037   -0.0500
21     C21     0.6807   -2.0044    1.0951 C.ar     1 ZINC000018847037   -0.1500
22     H22     1.0053    1.8021    0.0021 H        1 ZINC000018847037    0.0500
23     H23    -0.5445    1.7859   -0.8732 H        1 ZINC000018847037    0.1000
24     H24    -0.5275    1.7763    0.9067 H        1 ZINC000018847037    0.0500
25     H25     1.1538    1.2194    2.0081 H        1 ZINC000018847037    0.1300
26     H26     2.2840    0.1125    3.8911 H        1 ZINC000018847037    0.1300
27     H27     1.2016   -1.8506    5.7232 H        1 ZINC000018847037    0.1800
28     H28     4.1381   -3.6885    8.6674 H        1 ZINC000018847037    0.1200
29     H29     7.5219   -4.9211    6.3618 H        1 ZINC000018847037    0.1200
30     H30     6.2936   -5.2862    3.6515 H        1 ZINC000018847037    0.3900
31     H31     1.3635   -3.7091    2.1850 H        1 ZINC000018847037    0.1300
32     H32     0.2314   -2.5927    0.3087 H        1 ZINC000018847037    0.1300
@<TRIPOS>BOND
1     1     2     1
2     1     22    1
3     1     23    1
4     1     24    1
5     2     3     1
6     3     21    ar
7     3     4     ar
8     4     5     ar
9     4     25    1
10    5     6     ar
11    5     26    1
12    6     7     1
13    6     20    ar
14    7     18    1
15    7     8     2
16    8     9     1
17    8     27    1
18    9     10    1
19    10    17    ar
20    10    11    ar
21    11    12    ar
22    11    28    1
23    12    13    1
24    12    14    ar
25    14    15    ar
26    14    29    1
27    15    16    1
28    15    17    ar
29    16    30    1
30    17    18    1
31    18    19    2
32    20    21    ar
33    20    31    1
34    21    32    1
@<TRIPOS>SUBSTRUCTURE
1   ZINC000018847037 1     RESIDUE    1   A     ZIN   1


@<TRIPOS>MOLECULE
C1=CC(=CC=C1C2=COC3=C(C2=O)C=CC(=C3)O)O
28    30    1     0     0
SMALL
USER_CHARGES
@<TRIPOS>ATOM
1      O1      0.0021   -0.0041    0.0020 O.2      1 ZINC000018847034   -0.5000
2      C2     -0.0145    1.2148    0.0087 C.2      1 ZINC000018847034    0.4400
3      C3     -1.2747    1.9819    0.0312 C.ar     1 ZINC000018847034   -0.3500
4      C4     -2.5028    1.3693   -0.2144 C.ar     1 ZINC000018847034    0.0000
5      C5     -3.6475    2.1148   -0.1926 C.ar     1 ZINC000018847034   -0.2600
6      C6     -3.5902    3.4813    0.0721 C.ar     1 ZINC000018847034    0.3100
7      O7     -4.7345    4.2114    0.0866 O.3      1 ZINC000018847034   -0.7000
8      C8     -2.3781    4.1024    0.3211 C.ar     1 ZINC000018847034   -0.2900
9      C9     -1.2045    3.3591    0.3074 C.ar     1 ZINC000018847034    0.1700
10     O10    -0.0207    3.9467    0.5636 O.3      1 ZINC000018847034   -0.2300
11     C11     1.1309    3.3433    0.2692 C.2      1 ZINC000018847034    0.1300
12     C12     1.2247    2.0160    0.0012 C.2      1 ZINC000018847034   -0.2700
13     C13     2.5347    1.3894   -0.3013 C.ar     1 ZINC000018847034   -0.0100
14     C14     2.7767    0.8517   -1.5643 C.ar     1 ZINC000018847034   -0.0800
15     C15     3.9958    0.2696   -1.8424 C.ar     1 ZINC000018847034   -0.1400
16     C16     4.9813    0.2190   -0.8662 C.ar     1 ZINC000018847034    0.0900
17     O17     6.1816   -0.3552   -1.1433 O.3      1 ZINC000018847034   -0.5000
18     C18     4.7436    0.7540    0.3924 C.ar     1 ZINC000018847034   -0.1400
19     C19     3.5283    1.3421    0.6751 C.ar     1 ZINC000018847034   -0.1000
20     H20    -2.5490    0.3103   -0.4212 H        1 ZINC000018847034    0.1100
21     H21    -4.6005    1.6431   -0.3816 H        1 ZINC000018847034    0.1100
22     H22    -2.3449    5.1625    0.5249 H        1 ZINC000018847034    0.1200
23     H23     2.0321    3.9380    0.2471 H        1 ZINC000018847034    0.1800
24     H24     2.0102    0.8904   -2.3242 H        1 ZINC000018847034    0.1300
25     H25     4.1838   -0.1475   -2.8208 H        1 ZINC000018847034    0.1300
26     H26     6.8394    0.2594   -1.4964 H        1 ZINC000018847034    0.3900
27     H27     5.5123    0.7131    1.1499 H        1 ZINC000018847034    0.1300
28     H28     3.3441    1.7585    1.6544 H        1 ZINC000018847034    0.1300
@<TRIPOS>BOND
1     1     2     2
2     2     12    1
3     2     3     1
4     3     9     ar
5     3     4     ar
6     4     5     ar
7     4     20    1
8     5     6     ar
9     5     21    1
10    6     7     1
11    6     8     ar
12    8     9     ar
13    8     22    1
14    9     10    1
15    10    11    1
16    11    12    2
17    11    23    1
18    12    13    1
19    13    19    ar
20    13    14    ar
21    14    15    ar
22    14    24    1
23    15    16    ar
24    15    25    1
25    16    17    1
26    16    18    ar
27    17    26    1
28    18    19    ar
29    18    27    1
30    19    28    1
@<TRIPOS>SUBSTRUCTURE
1   ZINC000018847034 1     RESIDUE    1   A     ZIN   1


@<TRIPOS>MOLECULE
C[C@@H]1CC[C@@]2(CC[C@@]3(C(=CC[C@H]4[C@]3(CC[C@@H]5[C@@]4(CC[C@@H](C5(C)C)O)C)C)[C@@H]2[C@H]1C)C)C(=O)O
80    84    1     0     0
SMALL
USER_CHARGES
@<TRIPOS>ATOM
1      C1      8.9465    6.2846    1.4712 C.3      1 ZINC000001531359   -0.1400
2      C2      7.7588    5.5432    2.1451 C.3      1 ZINC000001531359   -0.0600
3      H3      6.9086    5.7862    1.5841 H        1 ZINC000001531359    0.0600
4      C4      7.9481    4.0493    1.9939 C.3      1 ZINC000001531359    0.0000
5      H5      8.4094    3.8344    1.1011 H        1 ZINC000001531359    0.0700
6      C6      6.5703    3.2232    1.9775 C.2      1 ZINC000001531359   -0.0800
7      C7      5.4830    3.9784    1.7239 C.2      1 ZINC000001531359   -0.2200
8      C8      4.0993    3.3611    1.6297 C.3      1 ZINC000001531359   -0.0700
9      C9      4.1943    1.9121    1.1885 C.3      1 ZINC000001531359   -0.0700
10     H10     4.7117    1.8790    0.1915 H        1 ZINC000001531359    0.0700
11     C11     2.8165    1.2711    1.0248 C.3      1 ZINC000001531359   -0.0200
12     C12     1.9740    1.5838    2.3149 C.3      1 ZINC000001531359   -0.1500
13     C13     2.2163    1.8805   -0.1571 C.3      1 ZINC000001531359   -0.1000
14     C14     0.7755    1.3014   -0.3796 C.3      1 ZINC000001531359   -0.1700
15     C15     0.9387   -0.2499   -0.6645 C.3      1 ZINC000001531359    0.1200
16     H16    -0.0921   -0.6595   -0.6453 H        1 ZINC000001531359    0.0300
17     O17     1.5430   -0.3922   -1.8862 O.3      1 ZINC000001531359   -0.5400
18     C18     1.7348   -0.9506    0.3919 C.3      1 ZINC000001531359   -0.0400
19     C19     0.8989   -1.3160    1.5534 C.3      1 ZINC000001531359   -0.1400
20     C20     2.2160   -2.3174   -0.2287 C.3      1 ZINC000001531359   -0.1400
21     C21     3.0039   -0.2002    0.8047 C.3      1 ZINC000001531359   -0.0500
22     H22     3.6806   -0.2905   -0.0755 H        1 ZINC000001531359    0.0600
23     C23     3.7359   -0.8571    2.0212 C.3      1 ZINC000001531359   -0.1000
24     C24     5.1600   -0.3522    1.9843 C.3      1 ZINC000001531359   -0.1200
25     C25     5.1534    1.2022    2.2099 C.3      1 ZINC000001531359   -0.0300
26     C26     4.7905    1.4461    3.5631 C.3      1 ZINC000001531359   -0.1600
27     C27     6.5550    1.7368    1.9570 C.3      1 ZINC000001531359    0.0000
28     C28     7.1606    1.2420    0.6599 C.3      1 ZINC000001531359   -0.1400
29     C29     7.4936    1.2247    3.1494 C.3      1 ZINC000001531359   -0.1100
30     C30     8.9171    1.8280    3.0003 C.3      1 ZINC000001531359   -0.1000
31     C31     8.7880    3.3573    3.0821 C.3      1 ZINC000001531359   -0.1300
32     C32    10.2184    3.8748    3.0582 C.2      1 ZINC000001531359    0.5000
33     O33    10.7603    4.1200    1.9939 O.co2    1 ZINC000001531359   -0.7000
34     O34    10.8228    4.0444    4.1034 O.co2    1 ZINC000001531359   -0.7000
35     C35     8.2009    3.8045    4.4570 C.3      1 ZINC000001531359   -0.0800
36     C36     8.3444    5.2829    4.6404 C.3      1 ZINC000001531359   -0.0800
37     C37     7.5870    6.0464    3.6257 C.3      1 ZINC000001531359   -0.0800
38     H38     8.0568    7.0659    3.6032 H        1 ZINC000001531359    0.0400
39     C39     6.1635    6.2568    3.9599 C.3      1 ZINC000001531359   -0.1300
40     H40     9.8418    6.1669    2.0818 H        1 ZINC000001531359    0.0800
41     H41     9.1236    5.8631    0.4817 H        1 ZINC000001531359    0.0500
42     H42     8.7074    7.3439    1.3774 H        1 ZINC000001531359    0.0300
43     H43     5.5860    5.0517    1.6902 H        1 ZINC000001531359    0.1100
44     H44     3.6108    3.4934    2.5105 H        1 ZINC000001531359    0.0800
45     H45     3.6212    3.9130    0.7615 H        1 ZINC000001531359    0.0500
46     H46     2.3897    1.0375    3.1616 H        1 ZINC000001531359    0.0700
47     H47     2.0081    2.6536    2.5207 H        1 ZINC000001531359    0.0600
48     H48     0.9401    1.2769    2.1569 H        1 ZINC000001531359    0.0500
49     H49     2.7883    1.7770   -1.0621 H        1 ZINC000001531359    0.0700
50     H50     2.0289    3.0103    0.0314 H        1 ZINC000001531359    0.0500
51     H51     0.3655    1.6836   -1.2126 H        1 ZINC000001531359    0.0500
52     H52     0.1422    1.4631    0.5154 H        1 ZINC000001531359    0.0700
53     H53     1.0453   -0.0039   -2.6187 H        1 ZINC000001531359    0.3700
54     H54     0.1138   -2.0017    1.2346 H        1 ZINC000001531359    0.0500
55     H55     1.5182   -1.7989    2.3092 H        1 ZINC000001531359    0.0700
56     H56     0.4477   -0.4170    1.9734 H        1 ZINC000001531359    0.0600
57     H57     2.8295   -2.1212   -1.1080 H        1 ZINC000001531359    0.0600
58     H58     2.8029   -2.8648    0.5090 H        1 ZINC000001531359    0.0500
59     H59     1.3484   -2.9114   -0.5161 H        1 ZINC000001531359    0.0400
60     H60     3.3135   -0.6556    2.9028 H        1 ZINC000001531359    0.0700
61     H61     3.8304   -1.9500    1.8093 H        1 ZINC000001531359    0.0600
62     H62     5.7583   -0.7949    2.7680 H        1 ZINC000001531359    0.0600
63     H63     5.5960   -0.5902    1.0264 H        1 ZINC000001531359    0.0600
64     H64     5.5836    1.0917    4.2215 H        1 ZINC000001531359    0.0600
65     H65     4.6446    2.5158    3.7131 H        1 ZINC000001531359    0.0600
66     H66     3.8650    0.9176    3.7920 H        1 ZINC000001531359    0.0600
67     H67     6.5346    1.5547   -0.1758 H        1 ZINC000001531359    0.0500
68     H68     8.1598    1.6614    0.5422 H        1 ZINC000001531359    0.0600
69     H69     7.2232    0.1540    0.6799 H        1 ZINC000001531359    0.0600
70     H70     7.1476    1.5835    4.0931 H        1 ZINC000001531359    0.0800
71     H71     7.6083    0.1895    3.0519 H        1 ZINC000001531359    0.0600
72     H72     9.5253    1.5087    3.8225 H        1 ZINC000001531359    0.0600
73     H73     9.3931    1.6456    2.0379 H        1 ZINC000001531359    0.0600
74     H74     7.2150    3.4119    4.5282 H        1 ZINC000001531359    0.0500
75     H75     8.7895    3.2984    5.2553 H        1 ZINC000001531359    0.0400
76     H76     7.7541    5.5289    5.6364 H        1 ZINC000001531359    0.0100
77     H77     9.3121    5.5977    4.8180 H        1 ZINC000001531359    0.0800
78     H78     6.0880    6.8095    4.8964 H        1 ZINC000001531359    0.0500
79     H79     5.6833    6.8247    3.1631 H        1 ZINC000001531359    0.0500
80     H80     5.6689    5.2914    4.0669 H        1 ZINC000001531359    0.0600
@<TRIPOS>BOND
1     1     2     1
2     1     40    1
3     1     41    1
4     1     42    1
5     2     3     1
6     2     37    1
7     2     4     1
8     4     5     1
9     4     31    1
10    4     6     1
11    6     27    1
12    6     7     2
13    7     8     1
14    7     43    1
15    8     9     1
16    8     44    1
17    8     45    1
18    9     10    1
19    9     25    1
20    9     11    1
21    11    21    1
22    11    12    1
23    11    13    1
24    12    46    1
25    12    47    1
26    12    48    1
27    13    14    1
28    13    49    1
29    13    50    1
30    14    15    1
31    14    51    1
32    14    52    1
33    15    16    1
34    15    17    1
35    15    18    1
36    17    53    1
37    18    19    1
38    18    20    1
39    18    21    1
40    19    54    1
41    19    55    1
42    19    56    1
43    20    57    1
44    20    58    1
45    20    59    1
46    21    22    1
47    21    23    1
48    23    24    1
49    23    60    1
50    23    61    1
51    24    25    1
52    24    62    1
53    24    63    1
54    25    26    1
55    25    27    1
56    26    64    1
57    26    65    1
58    26    66    1
59    27    28    1
60    27    29    1
61    28    67    1
62    28    68    1
63    28    69    1
64    29    30    1
65    29    70    1
66    29    71    1
67    30    31    1
68    30    72    1
69    30    73    1
70    31    32    1
71    31    35    1
72    32    33    ar
73    32    34    ar
74    35    36    1
75    35    74    1
76    35    75    1
77    36    37    1
78    36    76    1
79    36    77    1
80    37    38    1
81    37    39    1
82    39    78    1
83    39    79    1
84    39    80    1
@<TRIPOS>SUBSTRUCTURE
1   ZINC000001531359 1     RESIDUE    1   A     ZIN   1


@<TRIPOS>MOLECULE
COC1=C(C2=C(C=C1O)OC=C(C2=O)C3=CC=C(C=C3)O)O
33    35    1     0     0
SMALL
USER_CHARGES
@<TRIPOS>ATOM
1      C1     -0.0173    1.4248    0.0099 C.3      1 ZINC000000899915    0.0700
2      O2      0.0021   -0.0041    0.0020 O.3      1 ZINC000000899915   -0.3200
3      C3      0.6272   -0.6197    1.0437 C.2      1 ZINC000000899915   -0.1900
4      C4      1.1937    0.1291    2.0362 C.2      1 ZINC000000899915    0.2700
5      O5      1.1340    1.4851    1.9855 O.3      1 ZINC000000899915   -0.6600
6      C6      1.8410   -0.5115    3.1148 C.2      1 ZINC000000899915   -0.2100
7      C7      2.4325    0.2358    4.1507 C.2      1 ZINC000000899915    0.2700
8      O8      2.3965    1.5853    4.1405 O.3      1 ZINC000000899915   -0.3900
9      C9      3.0648   -0.4662    5.2023 C.2      1 ZINC000000899915   -0.2600
10     C10     3.7021    0.2778    6.3172 C.ar     1 ZINC000000899915   -0.0500
11     C11     2.9220    1.0431    7.1818 C.ar     1 ZINC000000899915   -0.0900
12     C12     3.5171    1.7335    8.2171 C.ar     1 ZINC000000899915   -0.1400
13     C13     4.8916    1.6665    8.3981 C.ar     1 ZINC000000899915    0.1100
14     O14     5.4752    2.3474    9.4193 O.3      1 ZINC000000899915   -0.5000
15     C15     5.6713    0.9049    7.5386 C.ar     1 ZINC000000899915   -0.1400
16     C16     5.0811    0.2077    6.5050 C.ar     1 ZINC000000899915   -0.0800
17     C17     3.0865   -1.8299    5.1886 C.2      1 ZINC000000899915    0.1600
18     O18     2.5227   -2.5315    4.2007 O.3      1 ZINC000000899915   -0.2000
19     C19     1.9030   -1.9240    3.1680 C.2      1 ZINC000000899915    0.1300
20     C20     1.3264   -2.6694    2.1577 C.2      1 ZINC000000899915   -0.2300
21     C21     0.6822   -2.0256    1.0969 C.2      1 ZINC000000899915    0.3400
22     O22     0.1260   -2.7482    0.1222 O.2      1 ZINC000000899915   -0.6400
23     H23     1.0053    1.8021    0.0021 H        1 ZINC000000899915    0.0500
24     H24    -0.5445    1.7859   -0.8732 H        1 ZINC000000899915    0.0400
25     H25    -0.5275    1.7763    0.9067 H        1 ZINC000000899915    0.0500
26     H26     2.8328    1.9962    4.8994 H        1 ZINC000000899915    0.3800
27     H27     1.8525    1.0959    7.0411 H        1 ZINC000000899915    0.1300
28     H28     2.9130    2.3271    8.8872 H        1 ZINC000000899915    0.1300
29     H29     5.5404    1.8431   10.2418 H        1 ZINC000000899915    0.3900
30     H30     6.7406    0.8546    7.6819 H        1 ZINC000000899915    0.1300
31     H31     5.6882   -0.3849    5.8367 H        1 ZINC000000899915    0.1300
32     H32     3.5722   -2.3564    5.9968 H        1 ZINC000000899915    0.2000
33     H33     1.3694   -3.7481    2.1896 H        1 ZINC000000899915    0.1300
@<TRIPOS>BOND
1     1     2     1
2     1     23    1
3     1     24    1
4     1     25    1
5     2     3     1
6     3     21    1
7     3     4     2
8     4     5     1
9     4     6     1
10    6     19    1
11    6     7     2
12    7     8     1
13    7     9     1
14    8     26    1
15    9     10    1
16    9     17    2
17    10    16    ar
18    10    11    ar
19    11    12    ar
20    11    27    1
21    12    13    ar
22    12    28    1
23    13    14    1
24    13    15    ar
25    14    29    1
26    15    16    ar
27    15    30    1
28    16    31    1
29    17    18    1
30    17    32    1
31    18    19    1
32    19    20    2
33    20    21    1
34    20    33    1
35    21    22    2
@<TRIPOS>SUBSTRUCTURE
1   ZINC000000899915 1     RESIDUE    1   A     ZIN   1


@<TRIPOS>MOLECULE
C1=CC=C(C=C1)C2=CC(=O)C3=C(C=C(C=C3O2)O)O
28    30    1     0     0
SMALL
USER_CHARGES
@<TRIPOS>ATOM
1      O1      0.0021   -0.0041    0.0020 O.2      1 ZINC000003872070   -0.5000
2      C2     -0.0145    1.2160    0.0087 C.2      1 ZINC000003872070    0.4300
3      C3     -1.2344    1.9355    0.0302 C.2      1 ZINC000003872070   -0.3100
4      C4     -1.2109    3.2942    0.0376 C.2      1 ZINC000003872070    0.1900
5      C5     -2.4933    4.0263    0.0605 C.ar     1 ZINC000003872070   -0.0600
6      C6     -3.7009    3.3252    0.0800 C.ar     1 ZINC000003872070   -0.0900
7      C7     -4.8950    4.0154    0.1014 C.ar     1 ZINC000003872070   -0.1200
8      C8     -4.8981    5.3991    0.1030 C.ar     1 ZINC000003872070   -0.1100
9      C9     -3.7052    6.1001    0.0832 C.ar     1 ZINC000003872070   -0.1200
10     C10    -2.5037    5.4227    0.0685 C.ar     1 ZINC000003872070   -0.0800
11     O11    -0.0671    3.9965    0.0252 O.3      1 ZINC000003872070   -0.2300
12     C12     1.1443    3.4015    0.0045 C.ar     1 ZINC000003872070    0.1900
13     C13     2.3058    4.1574   -0.0072 C.ar     1 ZINC000003872070   -0.2900
14     C14     3.5421    3.5299   -0.0280 C.ar     1 ZINC000003872070    0.3200
15     O15     4.6752    4.2774   -0.0390 O.3      1 ZINC000003872070   -0.6900
16     C16     3.6326    2.1424   -0.0372 C.ar     1 ZINC000003872070   -0.2900
17     C17     2.4849    1.3712   -0.0257 C.ar     1 ZINC000003872070    0.2200
18     O18     2.5711    0.0169   -0.0347 O.3      1 ZINC000003872070   -0.4900
19     C19     1.2330    1.9983    0.0010 C.ar     1 ZINC000003872070   -0.3700
20     H20    -2.1767    1.4080    0.0404 H        1 ZINC000003872070    0.1500
21     H21    -3.7000    2.2452    0.0781 H        1 ZINC000003872070    0.1300
22     H22    -5.8297    3.4746    0.1165 H        1 ZINC000003872070    0.1300
23     H23    -5.8359    5.9345    0.1194 H        1 ZINC000003872070    0.1200
24     H24    -3.7149    7.1801    0.0839 H        1 ZINC000003872070    0.1300
25     H25    -1.5734    5.9710    0.0532 H        1 ZINC000003872070    0.1400
26     H26     2.2480    5.2358   -0.0006 H        1 ZINC000003872070    0.1200
27     H27     4.6017    1.6659   -0.0538 H        1 ZINC000003872070    0.1200
28     H28     2.6083   -0.3807    0.8460 H        1 ZINC000003872070    0.3800
@<TRIPOS>BOND
1     1     2     2
2     2     19    1
3     2     3     1
4     3     4     2
5     3     20    1
6     4     5     1
7     4     11    1
8     5     10    ar
9     5     6     ar
10    6     7     ar
11    6     21    1
12    7     8     ar
13    7     22    1
14    8     9     ar
15    8     23    1
16    9     10    ar
17    9     24    1
18    10    25    1
19    11    12    1
20    12    19    ar
21    12    13    ar
22    13    14    ar
23    13    26    1
24    14    15    1
25    14    16    ar
26    16    17    ar
27    16    27    1
28    17    18    1
29    17    19    ar
30    18    28    1
@<TRIPOS>SUBSTRUCTURE
1   ZINC000003872070 1     RESIDUE    1   A     ZIN   1


@<TRIPOS>MOLECULE
CC(C)NCC(COC1=CC=C(C=C1)CC(=O)N)O
42    42    1     0     0
SMALL
USER_CHARGES
@<TRIPOS>ATOM
1      C1     -0.0187    1.5258    0.0104 C.3      1 ZINC000000014007   -0.1900
2      C2      0.0021   -0.0041    0.0020 C.3      1 ZINC000000014007    0.0200
3      C3      0.7421   -0.5109    1.2415 C.3      1 ZINC000000014007   -0.1900
4      N4     -1.3761   -0.5125    0.0124 N.4      1 ZINC000000014007   -0.5000
5      H5     -1.8225   -0.2564    0.8803 H        1 ZINC000000014007    0.4300
6      H6     -1.8879   -0.1129   -0.7598 H        1 ZINC000000014007    0.4300
7      C7     -1.3591   -1.9758   -0.1163 C.3      1 ZINC000000014007   -0.0500
8      C8     -2.7945   -2.5054   -0.1054 C.3      1 ZINC000000014007    0.0900
9      H9     -3.3047   -2.1538    0.7914 H        1 ZINC000000014007    0.1300
10     O10    -3.4857   -2.0320   -1.2631 O.3      1 ZINC000000014007   -0.5400
11     C11    -2.7738   -4.0352   -0.1139 C.3      1 ZINC000000014007    0.0300
12     O12    -4.1082   -4.5304    0.0137 O.3      1 ZINC000000014007   -0.3000
13     C13    -4.2671   -5.8800    0.0234 C.ar     1 ZINC000000014007    0.1200
14     C14    -3.1609   -6.7107   -0.0816 C.ar     1 ZINC000000014007   -0.2100
15     C15    -3.3251   -8.0823   -0.0710 C.ar     1 ZINC000000014007   -0.0600
16     C16    -4.5906   -8.6274    0.0439 C.ar     1 ZINC000000014007   -0.0900
17     C17    -4.7668  -10.1240    0.0547 C.3      1 ZINC000000014007   -0.1000
18     C18    -4.6950  -10.6280    1.4732 C.2      1 ZINC000000014007    0.5200
19     N19    -4.8273  -11.9448    1.7280 N.am     1 ZINC000000014007   -0.8600
20     O20    -4.5181   -9.8486    2.3854 O.2      1 ZINC000000014007   -0.5400
21     C21    -5.6946   -7.8017    0.1492 C.ar     1 ZINC000000014007   -0.0600
22     C22    -5.5352   -6.4295    0.1443 C.ar     1 ZINC000000014007   -0.1400
23     H23     1.0039    1.9031    0.0027 H        1 ZINC000000014007    0.1100
24     H24    -0.5459    1.8868   -0.8726 H        1 ZINC000000014007    0.0800
25     H25    -0.5289    1.8773    0.9072 H        1 ZINC000000014007    0.0800
26     H26     0.5123   -0.3556   -0.8948 H        1 ZINC000000014007    0.1400
27     H27     1.7647   -0.1336    1.2338 H        1 ZINC000000014007    0.1100
28     H28     0.2319   -0.1594    2.1383 H        1 ZINC000000014007    0.0800
29     H29     0.7568   -1.6008    1.2356 H        1 ZINC000000014007    0.0800
30     H30    -0.8769   -2.2525   -1.0538 H        1 ZINC000000014007    0.1400
31     H31    -0.8062   -2.4075    0.7180 H        1 ZINC000000014007    0.1500
32     H32    -3.0863   -2.3073   -2.0996 H        1 ZINC000000014007    0.3900
33     H33    -2.3435   -4.3876   -1.0513 H        1 ZINC000000014007    0.0800
34     H34    -2.1714   -4.3950    0.7203 H        1 ZINC000000014007    0.0800
35     H35    -2.1723   -6.2854   -0.1720 H        1 ZINC000000014007    0.1200
36     H36    -2.4643   -8.7294   -0.1527 H        1 ZINC000000014007    0.1300
37     H37    -5.7366  -10.3788   -0.3727 H        1 ZINC000000014007    0.1100
38     H38    -3.9764  -10.5872   -0.5359 H        1 ZINC000000014007    0.1100
39     H39    -4.9688  -12.5682    0.9984 H        1 ZINC000000014007    0.4000
40     H40    -4.7811  -12.2692    2.6409 H        1 ZINC000000014007    0.4000
41     H41    -6.6820   -8.2299    0.2391 H        1 ZINC000000014007    0.1300
42     H42    -6.3979   -5.7849    0.2266 H        1 ZINC000000014007    0.1300
@<TRIPOS>BOND
1     1     2     1
2     1     23    1
3     1     24    1
4     1     25    1
5     2     3     1
6     2     4     1
7     2     26    1
8     3     27    1
9     3     28    1
10    3     29    1
11    4     5     1
12    4     6     1
13    4     7     1
14    7     8     1
15    7     30    1
16    7     31    1
17    8     9     1
18    8     10    1
19    8     11    1
20    10    32    1
21    11    12    1
22    11    33    1
23    11    34    1
24    12    13    1
25    13    22    ar
26    13    14    ar
27    14    15    ar
28    14    35    1
29    15    16    ar
30    15    36    1
31    16    17    1
32    16    21    ar
33    17    18    1
34    17    37    1
35    17    38    1
36    18    19    am
37    18    20    2
38    19    39    1
39    19    40    1
40    21    22    ar
41    21    41    1
42    22    42    1
@<TRIPOS>SUBSTRUCTURE
1   ZINC000000014007 1     RESIDUE    1   A     ZIN   1


@<TRIPOS>MOLECULE
COC1=C(C=C(C=C1)[C@@H]2CC(=O)C3=C(C=C(C=C3O2)O)O)O
36    38    1     0     0
SMALL
USER_CHARGES
@<TRIPOS>ATOM
1      C1     -0.0173    1.4248    0.0099 C.3      1 ZINC000000039091    0.0200
2      O2      0.0021   -0.0041    0.0020 O.3      1 ZINC000000039091   -0.3100
3      C3     -1.2011   -0.6379    0.0101 C.ar     1 ZINC000000039091    0.1200
4      C4     -2.3739    0.0992    0.0195 C.ar     1 ZINC000000039091   -0.2000
5      C5     -3.5965   -0.5469    0.0272 C.ar     1 ZINC000000039091   -0.0600
6      C6     -3.6519   -1.9279    0.0261 C.ar     1 ZINC000000039091   -0.1200
7      C7     -4.9869   -2.6268    0.0350 C.3      1 ZINC000000039091    0.1500
8      H8     -4.8639   -3.6505   -0.3185 H        1 ZINC000000039091    0.0900
9      C9     -5.5478   -2.6421    1.4645 C.3      1 ZINC000000039091   -0.1900
10     C10    -6.9029   -3.3243    1.4082 C.2      1 ZINC000000039091    0.4000
11     O11    -7.2637   -4.0985    2.2706 O.2      1 ZINC000000039091   -0.4200
12     C12    -7.7536   -3.0003    0.2578 C.ar     1 ZINC000000039091   -0.2900
13     C13    -9.1070   -3.3717    0.2407 C.ar     1 ZINC000000039091    0.2200
14     O14    -9.6490   -4.0267    1.2973 O.3      1 ZINC000000039091   -0.4800
15     C15    -9.8842   -3.0644   -0.8620 C.ar     1 ZINC000000039091   -0.2200
16     C16    -9.3256   -2.3914   -1.9414 C.ar     1 ZINC000000039091    0.2000
17     O17   -10.0943   -2.0972   -3.0199 O.3      1 ZINC000000039091   -0.4900
18     C18    -7.9880   -2.0161   -1.9276 C.ar     1 ZINC000000039091   -0.2000
19     C19    -7.1936   -2.3112   -0.8341 C.ar     1 ZINC000000039091    0.2100
20     O20    -5.8937   -1.9328   -0.8216 O.3      1 ZINC000000039091   -0.3000
21     C21    -2.4848   -2.6697    0.0163 C.ar     1 ZINC000000039091   -0.0900
22     C22    -1.2569   -2.0287    0.0032 C.ar     1 ZINC000000039091    0.0800
23     O23    -0.1082   -2.7567   -0.0065 O.3      1 ZINC000000039091   -0.4800
24     H24     1.0053    1.8021    0.0021 H        1 ZINC000000039091    0.1000
25     H25    -0.5445    1.7859   -0.8732 H        1 ZINC000000039091    0.0600
26     H26    -0.5275    1.7763    0.9067 H        1 ZINC000000039091    0.0600
27     H27    -2.3334    1.1784    0.0211 H        1 ZINC000000039091    0.1400
28     H28    -4.5102    0.0290    0.0345 H        1 ZINC000000039091    0.1300
29     H29    -4.8785   -3.1997    2.1198 H        1 ZINC000000039091    0.1200
30     H30    -5.6610   -1.6214    1.8297 H        1 ZINC000000039091    0.1200
31     H31   -10.0230   -3.4433    1.9718 H        1 ZINC000000039091    0.4000
32     H32   -10.9260   -3.3482   -0.8838 H        1 ZINC000000039091    0.1500
33     H33   -10.5373   -1.2394   -2.9649 H        1 ZINC000000039091    0.4000
34     H34    -7.5670   -1.4925   -2.7732 H        1 ZINC000000039091    0.1500
35     H35    -2.5308   -3.7487    0.0154 H        1 ZINC000000039091    0.1400
36     H36     0.2154   -2.9690   -0.8926 H        1 ZINC000000039091    0.3900
@<TRIPOS>BOND
1     1     2     1
2     1     24    1
3     1     25    1
4     1     26    1
5     2     3     1
6     3     22    ar
7     3     4     ar
8     4     5     ar
9     4     27    1
10    5     6     ar
11    5     28    1
12    6     7     1
13    6     21    ar
14    7     8     1
15    7     20    1
16    7     9     1
17    9     10    1
18    9     29    1
19    9     30    1
20    10    11    2
21    10    12    1
22    12    19    ar
23    12    13    ar
24    13    14    1
25    13    15    ar
26    14    31    1
27    15    16    ar
28    15    32    1
29    16    17    1
30    16    18    ar
31    17    33    1
32    18    19    ar
33    18    34    1
34    19    20    1
35    21    22    ar
36    21    35    1
37    22    23    1
38    23    36    1
@<TRIPOS>SUBSTRUCTURE
1   ZINC000000039091 1     RESIDUE    1   A     ZIN   1


@<TRIPOS>MOLECULE
C/C/1=C\CCC(=C)[C@H]2CC([C@@H]2CC1)(C)C
  39   40    0    0    0
SMALL
USER_CHARGES
NO_NAME
@<TRIPOS>ATOM
    1 C1       -0.5105     1.4364     0.1532 C.2    1 <0>      -0.2100
    2 C2       -0.4240     0.1249     0.0631 C.2    1 <0>      -0.0800
    3 C3       -1.6771    -0.7210     0.2104 C.3    1 <0>      -0.0900
    4 C4       -2.3733    -0.5879     1.6734 C.3    1 <0>      -0.0900
    5 C5       -1.0318    -0.6151     2.5516 C.2    1 <0>      -0.2000
    6 C6       -0.4541    -1.7019     2.0578 C.2    1 <0>      -0.1200
    7 C7       -0.9121    -2.9925     1.5884 C.3    1 <0>      -0.1200
    8 C8        1.0288    -1.2790     1.9649 C.3    1 <0>      -0.1100
    9 C9        1.7003    -2.5170     1.2869 C.3    1 <0>      -0.1200
   10 C10       1.0881    -2.0659    -0.1329 C.3    1 <0>      -0.0800
   11 H11       0.2327    -2.6648    -0.4757 H      1 <0>       0.1100
   12 C12       0.9301    -0.5282    -0.2081 C.3    1 <0>      -0.0700
   13 H13       1.7527     0.0600     0.2430 H      1 <0>       0.1000
   14 C14       1.2011    -0.7571    -1.7108 C.3    1 <0>      -0.1400
   15 C15       2.1440    -1.8867    -1.2243 C.3    1 <0>      -0.1000
   16 C16       3.5184    -1.3842    -0.8119 C.3    1 <0>      -0.1300
   17 C17       2.2104    -3.0540    -2.2152 C.3    1 <0>      -0.1400
   18 H18       0.3737     2.0453     0.0355 H      1 <0>       0.0900
   19 H19      -1.4664     1.9030     0.3405 H      1 <0>       0.1000
   20 H20      -2.4337    -0.2201    -0.4584 H      1 <0>       0.0300
   21 H21      -1.6209    -1.6954    -0.1751 H      1 <0>       0.0800
   22 H22      -2.8598     0.3744     1.7567 H      1 <0>       0.0700
   23 H23      -3.0059    -1.4294     1.8761 H      1 <0>       0.0800
   24 H24      -0.7294     0.0722     3.3113 H      1 <0>       0.1500
   25 H25      -1.8753    -2.8774     1.0914 H      1 <0>       0.0700
   26 H26      -0.1868    -3.4016     0.8850 H      1 <0>       0.0900
   27 H27      -1.0189    -3.6702     2.4355 H      1 <0>       0.0700
   28 H28       1.1817    -0.2860     1.6548 H      1 <0>       0.1100
   29 H29       1.3736    -1.2539     3.0473 H      1 <0>       0.0200
   30 H30       2.7937    -2.4610     1.2985 H      1 <0>       0.0700
   31 H31       1.4046    -3.4989     1.6004 H      1 <0>       0.0900
   32 H32       0.3441    -1.1270    -2.2618 H      1 <0>       0.0800
   33 H33       1.7298     0.0592    -2.1906 H      1 <0>       0.0600
   34 H34       3.4137    -0.4472    -0.2648 H      1 <0>       0.0600
   35 H35       3.9999    -2.1255    -0.1740 H      1 <0>       0.0600
   36 H36       4.1270    -1.2197    -1.7010 H      1 <0>       0.0600
   37 H37       2.8819    -2.7974    -3.0345 H      1 <0>       0.0500
   38 H38       2.5823    -3.9427    -1.7053 H      1 <0>       0.0500
   39 H39       1.2141    -3.2522    -2.6105 H      1 <0>       0.0500
@<TRIPOS>BOND
   1    1    2 2
   2    1   18 1
   3    1   19 1
   4    2   12 1
   5    2    3 1
   6    3    4 1
   7    3   20 1
   8    3   21 1
   9    4    5 1
  10    4   22 1
  11    4   23 1
  12    5    6 2
  13    5   24 1
  14    6    7 1
  15    6    8 1
  16    7   25 1
  17    7   26 1
  18    7   27 1
  19    8    9 1
  20    8   28 1
  21    8   29 1
  22    9   10 1
  23    9   30 1
  24    9   31 1
  25   10   11 1
  26   10   15 1
  27   10   12 1
  28   12   13 1
  29   12   14 1
  30   14   15 1
  31   14   32 1
  32   14   33 1
  33   15   16 1
  34   15   17 1
  35   16   34 1
  36   16   35 1
  37   16   36 1
  38   17   37 1
  39   17   38 1
  40   17   39 1


@<TRIPOS>MOLECULE
COC1=C(C=C(C2=C1OC(=CC2=O)C3=CC=CC=C3)O)O
32    34    1     0     0
SMALL
USER_CHARGES
@<TRIPOS>ATOM
1      C1     -0.0173    1.4248    0.0099 C.3      1 ZINC000000899093    0.0300
2      O2      0.0021   -0.0041    0.0020 O.3      1 ZINC000000899093   -0.3000
3      C3     -1.2036   -0.6392    0.0101 C.2      1 ZINC000000899093    0.0100
4      C4     -2.3742    0.0960    0.0195 C.2      1 ZINC000000899093    0.0400
5      O5     -2.3373    1.4464    0.0207 O.3      1 ZINC000000899093   -0.2100
6      C6     -3.4649    2.1753    0.0293 C.2      1 ZINC000000899093    0.1900
7      C7     -3.3718    3.6478    0.0303 C.ar     1 ZINC000000899093   -0.0600
8      C8     -4.5332    4.4246    0.0450 C.ar     1 ZINC000000899093   -0.0900
9      C9     -4.4384    5.8005    0.0463 C.ar     1 ZINC000000899093   -0.1200
10     C10    -3.1970    6.4120    0.0326 C.ar     1 ZINC000000899093   -0.1000
11     C11    -2.0425    5.6490    0.0179 C.ar     1 ZINC000000899093   -0.1200
12     C12    -2.1218    4.2722    0.0223 C.ar     1 ZINC000000899093   -0.0900
13     C13    -4.7070    1.5791    0.0368 C.2      1 ZINC000000899093   -0.3100
14     C14    -4.8088    0.1844    0.0360 C.2      1 ZINC000000899093    0.2500
15     O15    -6.0165   -0.4212    0.0428 O.3      1 ZINC000000899093   -0.4000
16     C16    -3.6187   -0.5756    0.0273 C.2      1 ZINC000000899093   -0.2000
17     C17    -3.6612   -1.9846    0.0265 C.2      1 ZINC000000899093    0.3300
18     O18    -4.8560   -2.6290    0.0332 O.3      1 ZINC000000899093   -0.6600
19     C19    -2.4979   -2.7001    0.0186 C.2      1 ZINC000000899093   -0.4200
20     C20    -1.2602   -2.0395    0.0031 C.2      1 ZINC000000899093    0.3500
21     O21    -0.1287   -2.7496   -0.0050 O.2      1 ZINC000000899093   -0.6400
22     H22     1.0053    1.8021    0.0021 H        1 ZINC000000899093    0.0900
23     H23    -0.5445    1.7859   -0.8732 H        1 ZINC000000899093    0.0500
24     H24    -0.5275    1.7763    0.9067 H        1 ZINC000000899093    0.0500
25     H25    -5.5026    3.9488    0.0551 H        1 ZINC000000899093    0.1300
26     H26    -5.3352    6.4022    0.0577 H        1 ZINC000000899093    0.1300
27     H27    -3.1289    7.4898    0.0330 H        1 ZINC000000899093    0.1300
28     H28    -1.0771    6.1330    0.0069 H        1 ZINC000000899093    0.1300
29     H29    -1.2200    3.6780    0.0111 H        1 ZINC000000899093    0.1400
30     H30    -5.5995    2.1871    0.0437 H        1 ZINC000000899093    0.1500
31     H31    -6.7640    0.1922    0.0481 H        1 ZINC000000899093    0.3800
32     H32    -2.5310   -3.7796    0.0183 H        1 ZINC000000899093    0.1100
@<TRIPOS>BOND
1     1     2     1
2     1     22    1
3     1     23    1
4     1     24    1
5     2     3     1
6     3     20    1
7     3     4     2
8     4     16    1
9     4     5     1
10    5     6     1
11    6     7     1
12    6     13    2
13    7     12    ar
14    7     8     ar
15    8     9     ar
16    8     25    1
17    9     10    ar
18    9     26    1
19    10    11    ar
20    10    27    1
21    11    12    ar
22    11    28    1
23    12    29    1
24    13    14    1
25    13    30    1
26    14    15    1
27    14    16    2
28    15    31    1
29    16    17    1
30    17    18    1
31    17    19    2
32    19    20    1
33    19    32    1
34    20    21    2
@<TRIPOS>SUBSTRUCTURE
1   ZINC000000899093 1     RESIDUE    1   A     ZIN   1


@<TRIPOS>MOLECULE
CCC1=C(C2=CC=CC=C2C=C1)CNC(=O)C3=C(C=C(C4=C3OC5=CC(=C(C(=O)[C@]54C)C(=O)C)O)O)OC
63    67    1     0     0
SMALL
USER_CHARGES
@<TRIPOS>ATOM
1      C1     -0.0187    1.5258    0.0104 C.3      1 ZINC000101510955   -0.1500
2      C2      0.0021   -0.0041    0.0020 C.3      1 ZINC000101510955   -0.0900
3      C3     -1.4117   -0.5257    0.0127 C.ar     1 ZINC000101510955   -0.0600
4      C4     -2.0094   -0.8635    1.2252 C.ar     1 ZINC000101510955   -0.1100
5      C5     -3.2847   -1.3374    1.2700 C.ar     1 ZINC000101510955   -0.1000
6      C6     -4.0121   -1.4894    0.0776 C.ar     1 ZINC000101510955   -0.0600
7      C7     -5.3310   -1.9750    0.0838 C.ar     1 ZINC000101510955   -0.1100
8      C8     -6.0049   -2.1086   -1.0910 C.ar     1 ZINC000101510955   -0.1200
9      C9     -5.4070   -1.7708   -2.3038 C.ar     1 ZINC000101510955   -0.1200
10     C10    -4.1318   -1.2975   -2.3487 C.ar     1 ZINC000101510955   -0.1000
11     C11    -3.4040   -1.1458   -1.1559 C.ar     1 ZINC000101510955   -0.0300
12     C12    -2.0877   -0.6545   -1.1618 C.ar     1 ZINC000101510955   -0.0900
13     C13    -1.4258   -0.2774   -2.4620 C.3      1 ZINC000101510955    0.1600
14     N14    -1.6916    1.1334   -2.7541 N.am     1 ZINC000101510955   -0.7200
15     C15    -1.1952    1.6948   -3.8743 C.2      1 ZINC000101510955    0.6100
16     O16    -0.5265    1.0301   -4.6429 O.2      1 ZINC000101510955   -0.5600
17     C17    -1.4620    3.1108   -4.1674 C.ar     1 ZINC000101510955   -0.3100
18     C18    -0.5806    4.0998   -3.7091 C.ar     1 ZINC000101510955    0.2200
19     O19     0.5111    3.7506   -2.9835 O.3      1 ZINC000101510955   -0.3200
20     C20     1.3667    4.8094   -2.5485 C.3      1 ZINC000101510955    0.0400
21     C21    -0.8224    5.4312   -3.9961 C.ar     1 ZINC000101510955   -0.3600
22     C22    -1.9382    5.7859   -4.7441 C.ar     1 ZINC000101510955    0.3600
23     O23    -2.1712    7.0918   -5.0309 O.3      1 ZINC000101510955   -0.6600
24     C24    -2.8134    4.8143   -5.1989 C.ar     1 ZINC000101510955   -0.2900
25     C25    -2.6003    3.4735   -4.9139 C.ar     1 ZINC000101510955    0.1800
26     O26    -3.6049    2.7060   -5.4080 O.3      1 ZINC000101510955   -0.2300
27     C27    -4.6024    3.4391   -5.9003 C.2      1 ZINC000101510955    0.1300
28     C28    -5.8688    3.1072   -6.2323 C.2      1 ZINC000101510955   -0.2700
29     C29    -6.7139    4.2575   -6.6378 C.2      1 ZINC000101510955    0.4700
30     O30    -7.5074    4.1980   -7.5604 O.2      1 ZINC000101510955   -0.5200
31     C31    -6.5134    5.4946   -5.8246 C.2      1 ZINC000101510955   -0.5500
32     C32    -7.5626    6.3027   -5.4437 C.2      1 ZINC000101510955    0.3300
33     C33    -8.9709    5.9496   -5.8478 C.3      1 ZINC000101510955   -0.1500
34     O34    -7.3304    7.4037   -4.7130 O.3      1 ZINC000101510955   -0.6400
35     C35    -5.1097    5.7937   -5.4549 C.2      1 ZINC000101510955    0.4200
36     O36    -4.8152    6.7287   -4.7392 O.2      1 ZINC000101510955   -0.4300
37     C37    -4.0669    4.8596   -6.0302 C.3      1 ZINC000101510955   -0.0500
38     C38    -3.7659    5.2099   -7.4888 C.3      1 ZINC000101510955   -0.1100
39     H39     1.0039    1.9031    0.0027 H        1 ZINC000101510955    0.0600
40     H40    -0.5459    1.8868   -0.8726 H        1 ZINC000101510955    0.0700
41     H41    -0.5289    1.8773    0.9072 H        1 ZINC000101510955    0.0500
42     H42     0.5123   -0.3556   -0.8948 H        1 ZINC000101510955    0.0800
43     H43     0.5293   -0.3651    0.8851 H        1 ZINC000101510955    0.0700
44     H44    -1.4523   -0.7480    2.1432 H        1 ZINC000101510955    0.1200
45     H45    -3.7349   -1.5956    2.2171 H        1 ZINC000101510955    0.1200
46     H46    -5.8071   -2.2411    1.0160 H        1 ZINC000101510955    0.1200
47     H47    -7.0181   -2.4823   -1.0834 H        1 ZINC000101510955    0.1200
48     H48    -5.9639   -1.8867   -3.2219 H        1 ZINC000101510955    0.1200
49     H49    -3.6813   -1.0401   -3.2959 H        1 ZINC000101510955    0.1300
50     H50    -0.3503   -0.4354   -2.3815 H        1 ZINC000101510955    0.0800
51     H51    -1.8247   -0.8962   -3.2658 H        1 ZINC000101510955    0.0700
52     H52    -2.2248    1.6635   -2.1412 H        1 ZINC000101510955    0.4000
53     H53     2.1989    4.3938   -1.9804 H        1 ZINC000101510955    0.0800
54     H54     1.7509    5.3457   -3.4161 H        1 ZINC000101510955    0.0500
55     H55     0.8028    5.4961   -1.9172 H        1 ZINC000101510955    0.0500
56     H56    -0.1455    6.1934   -3.6393 H        1 ZINC000101510955    0.1100
57     H57    -6.2349    2.0915   -6.2052 H        1 ZINC000101510955    0.1400
58     H58    -9.2309    4.9718   -5.4423 H        1 ZINC000101510955    0.0600
59     H59    -9.6594    6.6993   -5.4581 H        1 ZINC000101510955    0.0500
60     H60    -9.0408    5.9224   -6.9352 H        1 ZINC000101510955    0.0700
61     H61    -3.3797    6.2276   -7.5458 H        1 ZINC000101510955    0.0700
62     H62    -3.0229    4.5167   -7.8831 H        1 ZINC000101510955    0.0500
63     H63    -4.6807    5.1350   -8.0767 H        1 ZINC000101510955    0.0500
@<TRIPOS>BOND
1     1     2     1
2     1     39    1
3     1     40    1
4     1     41    1
5     2     3     1
6     2     42    1
7     2     43    1
8     3     12    ar
9     3     4     ar
10    4     5     ar
11    4     44    1
12    5     6     ar
13    5     45    1
14    6     11    ar
15    6     7     ar
16    7     8     ar
17    7     46    1
18    8     9     ar
19    8     47    1
20    9     10    ar
21    9     48    1
22    10    11    ar
23    10    49    1
24    11    12    ar
25    12    13    1
26    13    14    1
27    13    50    1
28    13    51    1
29    14    15    am
30    14    52    1
31    15    16    2
32    15    17    1
33    17    25    ar
34    17    18    ar
35    18    19    1
36    18    21    ar
37    19    20    1
38    20    53    1
39    20    54    1
40    20    55    1
41    21    22    ar
42    21    56    1
43    22    23    1
44    22    24    ar
45    24    37    1
46    24    25    ar
47    25    26    1
48    26    27    1
49    27    37    1
50    27    28    2
51    28    29    1
52    28    57    1
53    29    30    2
54    29    31    1
55    31    32    2
56    31    35    1
57    32    33    1
58    32    34    1
59    33    58    1
60    33    59    1
61    33    60    1
62    35    36    2
63    35    37    1
64    37    38    1
65    38    61    1
66    38    62    1
67    38    63    1
@<TRIPOS>SUBSTRUCTURE
1   ZINC000101510955 1     RESIDUE    1   A     ZIN   1


@<TRIPOS>MOLECULE
CC1=C2COC(=O)C2=C(C(=C1OC)C/C=C(\C)/CCC(=O)O)O
42    43    1     0     0
SMALL
USER_CHARGES
@<TRIPOS>ATOM
1      C1     -0.2952    0.8287   -0.1486 C.3      1 ZINC000000001758    0.0300
2      O2     -0.0039   -0.4469   -0.7230 O.3      1 ZINC000000001758   -0.3300
3      C3      0.6660   -0.4528   -1.9031 C.ar     1 ZINC000000001758    0.1500
4      C4     -0.0358   -0.3343   -3.1006 C.ar     1 ZINC000000001758   -0.1000
5      C5     -1.5367   -0.2004   -3.0835 C.3      1 ZINC000000001758   -0.1100
6      C6      0.6381   -0.3389   -4.2950 C.ar     1 ZINC000000001758   -0.0800
7      C7      2.0327   -0.4628   -4.3215 C.ar     1 ZINC000000001758   -0.2300
8      C8      2.4661   -0.4365   -5.7243 C.2      1 ZINC000000001758    0.5300
9      O9      3.6200   -0.5232   -6.0962 O.2      1 ZINC000000001758   -0.4400
10     O10     1.4049   -0.3035   -6.5383 O.3      1 ZINC000000001758   -0.3200
11     C11     0.1962   -0.2325   -5.7332 C.3      1 ZINC000000001758    0.1000
12     C12     2.7375   -0.5825   -3.1134 C.ar     1 ZINC000000001758    0.2100
13     O13     4.0885   -0.7034   -3.1220 O.3      1 ZINC000000001758   -0.4800
14     C14     2.0483   -0.5710   -1.9131 C.ar     1 ZINC000000001758   -0.1100
15     C15     2.8007   -0.6987   -0.6136 C.3      1 ZINC000000001758   -0.0500
16     C16     3.3086    0.6560   -0.1920 C.2      1 ZINC000000001758   -0.2000
17     C17     4.5800    0.8250    0.0745 C.2      1 ZINC000000001758   -0.0900
18     C18     5.5093   -0.3612    0.0974 C.3      1 ZINC000000001758   -0.1200
19     C19     5.1134    2.2056    0.3582 C.3      1 ZINC000000001758   -0.0600
20     C20     5.1402    2.4414    1.8697 C.3      1 ZINC000000001758   -0.1700
21     C21     5.6735    3.8220    2.1534 C.2      1 ZINC000000001758    0.4900
22     O22     6.0018    4.5499    1.2321 O.co2    1 ZINC000000001758   -0.7000
23     O23     5.7768    4.2110    3.3043 O.co2    1 ZINC000000001758   -0.7100
24     H24     0.6358    1.3249    0.1256 H        1 ZINC000000001758    0.0600
25     H25    -0.8325    1.4396   -0.8740 H        1 ZINC000000001758    0.0500
26     H26    -0.9111    0.6947    0.7406 H        1 ZINC000000001758    0.1000
27     H27    -1.8068    0.8543   -3.0320 H        1 ZINC000000001758    0.0700
28     H28    -1.9509   -0.6375   -3.9921 H        1 ZINC000000001758    0.0700
29     H29    -1.9381   -0.7211   -2.2141 H        1 ZINC000000001758    0.0800
30     H30    -0.4689   -1.0593   -5.9826 H        1 ZINC000000001758    0.1200
31     H31    -0.3093    0.7187   -5.9001 H        1 ZINC000000001758    0.1200
32     H32     4.5591    0.1405   -3.0834 H        1 ZINC000000001758    0.4000
33     H33     2.1350   -1.0924    0.1545 H        1 ZINC000000001758    0.0900
34     H34     3.6433   -1.3773   -0.7468 H        1 ZINC000000001758    0.0900
35     H35     2.6244    1.4875   -0.1094 H        1 ZINC000000001758    0.1100
36     H36     5.8506   -0.5749   -0.9155 H        1 ZINC000000001758    0.0700
37     H37     6.3679   -0.1379    0.7306 H        1 ZINC000000001758    0.0600
38     H38     4.9815   -1.2286    0.4936 H        1 ZINC000000001758    0.0600
39     H39     6.1237    2.2940   -0.0413 H        1 ZINC000000001758    0.0700
40     H40     4.4698    2.9479   -0.1139 H        1 ZINC000000001758    0.0600
41     H41     4.1299    2.3530    2.2692 H        1 ZINC000000001758    0.0600
42     H42     5.7838    1.6991    2.3418 H        1 ZINC000000001758    0.0600
@<TRIPOS>BOND
1     1     2     1
2     1     24    1
3     1     25    1
4     1     26    1
5     2     3     1
6     3     14    ar
7     3     4     ar
8     4     5     1
9     4     6     ar
10    5     27    1
11    5     28    1
12    5     29    1
13    6     11    1
14    6     7     ar
15    7     8     1
16    7     12    ar
17    8     9     2
18    8     10    1
19    10    11    1
20    11    30    1
21    11    31    1
22    12    13    1
23    12    14    ar
24    13    32    1
25    14    15    1
26    15    16    1
27    15    33    1
28    15    34    1
29    16    17    2
30    16    35    1
31    17    18    1
32    17    19    1
33    18    36    1
34    18    37    1
35    18    38    1
36    19    20    1
37    19    39    1
38    19    40    1
39    20    21    1
40    20    41    1
41    20    42    1
42    21    22    ar
43    21    23    ar
@<TRIPOS>SUBSTRUCTURE
1   ZINC000000001758 1     RESIDUE    1   A     ZIN   1


@<TRIPOS>MOLECULE
CC1=C(C(C[C@H](C1=O)O)(C)C)/C=C/C(=C/C=C/C(=C/C=C/C=C(/C=C/C=C(/C=C/C2=C(C(=O)[C@@H](CC2(C)C)O)C)\C)\C)/C)/C
96    97    1     0     0
SMALL
USER_CHARGES
@<TRIPOS>ATOM
1      C1      1.5955    1.6485    1.2037 C.3      1 ZINC000017653967   -0.1300
2      C2      1.6148    0.1419    1.2285 C.2      1 ZINC000017653967   -0.0900
3      C3      1.6122   -0.5371    2.4503 C.2      1 ZINC000017653967   -0.1000
4      C4      1.5919    0.1724    3.6342 C.2      1 ZINC000017653967   -0.1300
5      C5      1.5893   -0.5066    4.8560 C.2      1 ZINC000017653967   -0.1000
6      C6      1.5690    0.2030    6.0399 C.2      1 ZINC000017653967   -0.1000
7      C7      1.5497    1.7097    6.0151 C.3      1 ZINC000017653967   -0.1300
8      C8      1.5664   -0.4760    7.2617 C.2      1 ZINC000017653967   -0.0700
9      C9      1.5461    0.2335    8.4456 C.2      1 ZINC000017653967   -0.1500
10     C10     1.4279   -0.4422    9.6635 C.2      1 ZINC000017653967    0.0200
11     C11     0.3543   -1.2772    9.8758 C.2      1 ZINC000017653967   -0.2100
12     C12    -0.6731   -1.4488    8.7868 C.3      1 ZINC000017653967   -0.1100
13     C13     0.1974   -1.9679   11.0770 C.2      1 ZINC000017653967    0.3600
14     O14    -0.7634   -2.6977   11.2310 O.2      1 ZINC000017653967   -0.4600
15     C15     1.2066   -1.8192   12.1856 C.3      1 ZINC000017653967    0.0600
16     H16     1.9809   -2.5786   12.0772 H        1 ZINC000017653967    0.0900
17     O17     0.5558   -1.9779   13.4479 O.3      1 ZINC000017653967   -0.5500
18     C18     1.8408   -0.4274   12.1074 C.3      1 ZINC000017653967   -0.1000
19     C19     2.4801   -0.2522   10.7241 C.3      1 ZINC000017653967   -0.0400
20     C20     3.5930   -1.2861   10.5415 C.3      1 ZINC000017653967   -0.1400
21     C21     3.0670    1.1560   10.6077 C.3      1 ZINC000017653967   -0.1400
22     C22     1.6351   -0.5677    0.0446 C.2      1 ZINC000017653967   -0.1200
23     C23     1.6377    0.1113   -1.1772 C.2      1 ZINC000017653967   -0.1200
24     C24     1.6580   -0.5983   -2.3611 C.2      1 ZINC000017653967   -0.1200
25     C25     1.6607    0.0807   -3.5829 C.2      1 ZINC000017653967   -0.1200
26     C26     1.6809   -0.6288   -4.7668 C.2      1 ZINC000017653967   -0.0900
27     C27     1.7002   -2.1355   -4.7420 C.3      1 ZINC000017653967   -0.1300
28     C28     1.6836    0.0502   -5.9886 C.2      1 ZINC000017653967   -0.1000
29     C29     1.7038   -0.6594   -7.1725 C.2      1 ZINC000017653967   -0.1300
30     C30     1.7065    0.0196   -8.3943 C.2      1 ZINC000017653967   -0.1000
31     C31     1.7268   -0.6900   -9.5782 C.2      1 ZINC000017653967   -0.1000
32     C32     1.7461   -2.1966   -9.5533 C.3      1 ZINC000017653967   -0.1300
33     C33     1.7294   -0.0110  -10.8000 C.2      1 ZINC000017653967   -0.0700
34     C34     1.7497   -0.7205  -11.9839 C.2      1 ZINC000017653967   -0.1500
35     C35     1.6369   -0.0478  -13.2039 C.2      1 ZINC000017653967    0.0200
36     C36     0.5461    0.7591  -13.4365 C.2      1 ZINC000017653967   -0.2100
37     C37    -0.5056    0.9039  -12.3670 C.3      1 ZINC000017653967   -0.1100
38     C38     0.3939    1.4458  -14.6406 C.2      1 ZINC000017653967    0.3600
39     O39    -0.5824    2.1506  -14.8127 O.2      1 ZINC000017653967   -0.4600
40     C40     1.4272    1.3236  -15.7301 C.3      1 ZINC000017653967    0.0600
41     H41     2.1794    2.1029  -15.6074 H        1 ZINC000017653967    0.0900
42     O42     0.7962    1.4657  -17.0043 O.3      1 ZINC000017653967   -0.5500
43     C43     2.0956   -0.0513  -15.6396 C.3      1 ZINC000017653967   -0.1000
44     C44     2.7132   -0.2102  -14.2446 C.3      1 ZINC000017653967   -0.0400
45     C45     3.7954    0.8522  -14.0415 C.3      1 ZINC000017653967   -0.1400
46     C46     3.3341   -1.6027  -14.1169 C.3      1 ZINC000017653967   -0.1400
47     H47     2.6184    2.0251    1.2073 H        1 ZINC000017653967    0.0700
48     H48     1.0856    1.9906    0.3031 H        1 ZINC000017653967    0.0700
49     H49     1.0686    2.0197    2.0827 H        1 ZINC000017653967    0.0700
50     H50     1.6260   -1.6169    2.4681 H        1 ZINC000017653967    0.1200
51     H51     1.5781    1.2522    3.6164 H        1 ZINC000017653967    0.1200
52     H52     1.6031   -1.5863    4.8738 H        1 ZINC000017653967    0.1200
53     H53     0.5175    2.0596    5.9995 H        1 ZINC000017653967    0.0700
54     H54     2.0503    2.0941    6.9037 H        1 ZINC000017653967    0.0700
55     H55     2.0673    2.0650    5.1241 H        1 ZINC000017653967    0.0700
56     H56     1.5802   -1.5558    7.2795 H        1 ZINC000017653967    0.1200
57     H57     1.6215    1.3108    8.4308 H        1 ZINC000017653967    0.1400
58     H58    -0.3835   -2.2783    8.1416 H        1 ZINC000017653967    0.0700
59     H59    -1.6449   -1.6583    9.2338 H        1 ZINC000017653967    0.0700
60     H60    -0.7339   -0.5341    8.1972 H        1 ZINC000017653967    0.0700
61     H61     0.1286   -2.8375   13.5648 H        1 ZINC000017653967    0.3900
62     H62     1.0735    0.3322   12.2572 H        1 ZINC000017653967    0.0800
63     H63     2.6065   -0.3315   12.8771 H        1 ZINC000017653967    0.0900
64     H64     3.1743   -2.2891   10.6237 H        1 ZINC000017653967    0.0600
65     H65     4.0471   -1.1614    9.5585 H        1 ZINC000017653967    0.0700
66     H66     4.3506   -1.1443   11.3123 H        1 ZINC000017653967    0.0700
67     H67     3.8722    1.2750   11.3326 H        1 ZINC000017653967    0.0700
68     H68     3.4591    1.3042    9.6015 H        1 ZINC000017653967    0.0700
69     H69     2.2877    1.8919   10.8060 H        1 ZINC000017653967    0.0600
70     H70     1.6489   -1.6475    0.0624 H        1 ZINC000017653967    0.1200
71     H71     1.6239    1.1911   -1.1950 H        1 ZINC000017653967    0.1200
72     H72     1.6719   -1.6780   -2.3433 H        1 ZINC000017653967    0.1200
73     H73     1.6468    1.1605   -3.6007 H        1 ZINC000017653967    0.1200
74     H74     0.6774   -2.5121   -4.7456 H        1 ZINC000017653967    0.0700
75     H75     2.2272   -2.5066   -5.6210 H        1 ZINC000017653967    0.0700
76     H76     2.2101   -2.4776   -3.8413 H        1 ZINC000017653967    0.0700
77     H77     1.6697    1.1299   -6.0064 H        1 ZINC000017653967    0.1200
78     H78     1.7177   -1.7392   -7.1547 H        1 ZINC000017653967    0.1200
79     H79     1.6927    1.0994   -8.4121 H        1 ZINC000017653967    0.1200
80     H80     0.7232   -2.5732   -9.5570 H        1 ZINC000017653967    0.0700
81     H81     2.2730   -2.5678  -10.4324 H        1 ZINC000017653967    0.0700
82     H82     2.2560   -2.5387   -8.6527 H        1 ZINC000017653967    0.0700
83     H83     1.7156    1.0688  -10.8178 H        1 ZINC000017653967    0.1200
84     H84     1.8527   -1.7955  -11.9674 H        1 ZINC000017653967    0.1400
85     H85    -0.2498    1.7404  -11.7167 H        1 ZINC000017653967    0.0700
86     H86    -1.4739    1.0882  -12.8321 H        1 ZINC000017653967    0.0700
87     H87    -0.5537   -0.0123  -11.7784 H        1 ZINC000017653967    0.0700
88     H88     0.3491    2.3140  -17.1295 H        1 ZINC000017653967    0.3900
89     H89     1.3512   -0.8304  -15.8036 H        1 ZINC000017653967    0.0800
90     H90     2.8778   -0.1271  -16.3949 H        1 ZINC000017653967    0.0900
91     H91     3.3524    1.8440  -14.1318 H        1 ZINC000017653967    0.0600
92     H92     4.2341    0.7390  -13.0501 H        1 ZINC000017653967    0.0700
93     H93     4.5707    0.7303  -14.7980 H        1 ZINC000017653967    0.0700
94     H94     4.1556   -1.7007  -14.8266 H        1 ZINC000017653967    0.0700
95     H95     3.7110   -1.7409  -13.1035 H        1 ZINC000017653967    0.0700
96     H96     2.5781   -2.3585  -14.3296 H        1 ZINC000017653967    0.0600
@<TRIPOS>BOND
1     1     2     1
2     1     47    1
3     1     48    1
4     1     49    1
5     2     3     1
6     2     22    2
7     3     4     2
8     3     50    1
9     4     5     1
10    4     51    1
11    5     6     2
12    5     52    1
13    6     7     1
14    6     8     1
15    7     53    1
16    7     54    1
17    7     55    1
18    8     9     2
19    8     56    1
20    9     10    1
21    9     57    1
22    10    19    1
23    10    11    2
24    11    12    1
25    11    13    1
26    12    58    1
27    12    59    1
28    12    60    1
29    13    14    2
30    13    15    1
31    15    16    1
32    15    17    1
33    15    18    1
34    17    61    1
35    18    19    1
36    18    62    1
37    18    63    1
38    19    20    1
39    19    21    1
40    20    64    1
41    20    65    1
42    20    66    1
43    21    67    1
44    21    68    1
45    21    69    1
46    22    23    1
47    22    70    1
48    23    24    2
49    23    71    1
50    24    25    1
51    24    72    1
52    25    26    2
53    25    73    1
54    26    27    1
55    26    28    1
56    27    74    1
57    27    75    1
58    27    76    1
59    28    29    2
60    28    77    1
61    29    30    1
62    29    78    1
63    30    31    2
64    30    79    1
65    31    32    1
66    31    33    1
67    32    80    1
68    32    81    1
69    32    82    1
70    33    34    2
71    33    83    1
72    34    35    1
73    34    84    1
74    35    44    1
75    35    36    2
76    36    37    1
77    36    38    1
78    37    85    1
79    37    86    1
80    37    87    1
81    38    39    2
82    38    40    1
83    40    41    1
84    40    42    1
85    40    43    1
86    42    88    1
87    43    44    1
88    43    89    1
89    43    90    1
90    44    45    1
91    44    46    1
92    45    91    1
93    45    92    1
94    45    93    1
95    46    94    1
96    46    95    1
97    46    96    1
@<TRIPOS>SUBSTRUCTURE
1   ZINC000017653967 1     RESIDUE    1   A     ZIN   1


@<TRIPOS>MOLECULE
CC(=CCC/C(=C/CC1=C(C=C(C(=C1O)C(=O)O)CCC2=CC=CC=C2)OC)/C)C
61    62    1     0     0
SMALL
USER_CHARGES
@<TRIPOS>ATOM
1      C1     -0.0438    2.7788    0.7323 C.3      1 ZINC000013358271    0.0300
2      O2     -0.2934    1.3882    0.9471 O.3      1 ZINC000013358271   -0.3100
3      C3     -1.5898    0.9882    0.9492 C.ar     1 ZINC000013358271    0.1200
4      C4     -2.6027    1.9204    0.7418 C.ar     1 ZINC000013358271   -0.2100
5      C5     -3.9107    1.5303    0.7417 C.ar     1 ZINC000013358271   -0.0200
6      C6     -4.9995    2.5475    0.5161 C.3      1 ZINC000013358271   -0.0700
7      C7     -5.5374    3.0266    1.8659 C.3      1 ZINC000013358271   -0.0800
8      C8     -6.6262    4.0438    1.6404 C.ar     1 ZINC000013358271   -0.0700
9      C9     -6.3092    5.3860    1.5454 C.ar     1 ZINC000013358271   -0.1200
10     C10    -7.3079    6.3190    1.3385 C.ar     1 ZINC000013358271   -0.1300
11     C11    -8.6236    5.9099    1.2262 C.ar     1 ZINC000013358271   -0.1300
12     C12    -8.9404    4.5677    1.3204 C.ar     1 ZINC000013358271   -0.1200
13     C13    -7.9412    3.6342    1.5229 C.ar     1 ZINC000013358271   -0.1100
14     C14    -4.2420    0.1861    0.9503 C.ar     1 ZINC000013358271   -0.1600
15     C15    -5.6489   -0.2357    0.9500 C.2      1 ZINC000013358271    0.5400
16     O16    -6.1657   -0.6418   -0.0823 O.co2    1 ZINC000013358271   -0.6900
17     O17    -6.3042   -0.1812    1.9821 O.co2    1 ZINC000013358271   -0.6800
18     C18    -3.2220   -0.7579    1.1596 C.ar     1 ZINC000013358271    0.1500
19     O19    -3.5313   -2.0626    1.3623 O.3      1 ZINC000013358271   -0.4800
20     C20    -1.8996   -0.3490    1.1524 C.ar     1 ZINC000013358271   -0.1400
21     C21    -0.7982   -1.3531    1.3753 C.3      1 ZINC000013358271   -0.0400
22     C22    -0.3650   -1.9260    0.0505 C.2      1 ZINC000013358271   -0.1400
23     C23     0.8719   -1.7774   -0.3544 C.2      1 ZINC000013358271   -0.1400
24     C24     1.8553   -1.0119    0.4929 C.3      1 ZINC000013358271   -0.1200
25     C25     1.3115   -2.3719   -1.6675 C.3      1 ZINC000013358271   -0.0700
26     C26     1.2098   -1.3124   -2.7666 C.3      1 ZINC000013358271   -0.0900
27     C27     1.6494   -1.9069   -4.0797 C.2      1 ZINC000013358271   -0.1700
28     C28     0.8072   -1.9794   -5.0806 C.2      1 ZINC000013358271   -0.1400
29     C29    -0.6008   -1.4671   -4.9191 C.3      1 ZINC000013358271   -0.1200
30     C30     1.2464   -2.5750   -6.3933 C.3      1 ZINC000013358271   -0.1200
31     H31     1.0303    2.9628    0.7546 H        1 ZINC000013358271    0.0900
32     H32    -0.4429    3.0739   -0.2381 H        1 ZINC000013358271    0.0500
33     H33    -0.5284    3.3603    1.5166 H        1 ZINC000013358271    0.0500
34     H34    -2.3522    2.9584    0.5804 H        1 ZINC000013358271    0.1200
35     H35    -4.5953    3.3960   -0.0358 H        1 ZINC000013358271    0.0600
36     H36    -5.8081    2.0933   -0.0567 H        1 ZINC000013358271    0.0800
37     H37    -5.9416    2.1780    2.4179 H        1 ZINC000013358271    0.1000
38     H38    -4.7289    3.4807    2.4388 H        1 ZINC000013358271    0.0600
39     H39    -5.2813    5.7056    1.6331 H        1 ZINC000013358271    0.1200
40     H40    -7.0604    7.3677    1.2649 H        1 ZINC000013358271    0.1200
41     H41    -9.4040    6.6390    1.0653 H        1 ZINC000013358271    0.1200
42     H42    -9.9684    4.2480    1.2330 H        1 ZINC000013358271    0.1200
43     H43    -8.1888    2.5855    1.5965 H        1 ZINC000013358271    0.1300
44     H44    -3.5772   -2.5866    0.5509 H        1 ZINC000013358271    0.3900
45     H45     0.0495   -0.8624    1.8536 H        1 ZINC000013358271    0.0800
46     H46    -1.1626   -2.1557    2.0166 H        1 ZINC000013358271    0.0800
47     H47    -1.0744   -2.4591   -0.5651 H        1 ZINC000013358271    0.1000
48     H48     2.3224   -1.6886    1.2085 H        1 ZINC000013358271    0.0600
49     H49     2.6217   -0.5736   -0.1463 H        1 ZINC000013358271    0.0500
50     H50     1.3331   -0.2197    1.0295 H        1 ZINC000013358271    0.0800
51     H51     2.3438   -2.7119   -1.5850 H        1 ZINC000013358271    0.0600
52     H52     0.6696   -3.2168   -1.9169 H        1 ZINC000013358271    0.0600
53     H53     0.1774   -0.9725   -2.8491 H        1 ZINC000013358271    0.0800
54     H54     1.8517   -0.4675   -2.5173 H        1 ZINC000013358271    0.0700
55     H55     2.6587   -2.2733   -4.1957 H        1 ZINC000013358271    0.1000
56     H56    -0.6188   -0.3918   -5.0969 H        1 ZINC000013358271    0.0700
57     H57    -1.2531   -1.9649   -5.6366 H        1 ZINC000013358271    0.0600
58     H58    -0.9489   -1.6739   -3.9071 H        1 ZINC000013358271    0.0700
59     H59     1.0512   -3.6474   -6.3892 H        1 ZINC000013358271    0.0600
60     H60     0.6925   -2.1080   -7.2077 H        1 ZINC000013358271    0.0600
61     H61     2.3133   -2.4005   -6.5326 H        1 ZINC000013358271    0.0600
@<TRIPOS>BOND
1     1     2     1
2     1     31    1
3     1     32    1
4     1     33    1
5     2     3     1
6     3     20    ar
7     3     4     ar
8     4     5     ar
9     4     34    1
10    5     6     1
11    5     14    ar
12    6     7     1
13    6     35    1
14    6     36    1
15    7     8     1
16    7     37    1
17    7     38    1
18    8     13    ar
19    8     9     ar
20    9     10    ar
21    9     39    1
22    10    11    ar
23    10    40    1
24    11    12    ar
25    11    41    1
26    12    13    ar
27    12    42    1
28    13    43    1
29    14    15    1
30    14    18    ar
31    15    16    ar
32    15    17    ar
33    18    19    1
34    18    20    ar
35    19    44    1
36    20    21    1
37    21    22    1
38    21    45    1
39    21    46    1
40    22    23    2
41    22    47    1
42    23    24    1
43    23    25    1
44    24    48    1
45    24    49    1
46    24    50    1
47    25    26    1
48    25    51    1
49    25    52    1
50    26    27    1
51    26    53    1
52    26    54    1
53    27    28    2
54    27    55    1
55    28    29    1
56    28    30    1
57    29    56    1
58    29    57    1
59    29    58    1
60    30    59    1
61    30    60    1
62    30    61    1
@<TRIPOS>SUBSTRUCTURE
1   ZINC000013358271 1     RESIDUE    1   A     ZIN   1


@<TRIPOS>MOLECULE
C=CCC1=CC(=C(C=C1)O)C2=CC(=C(C=C2)O)CC=C
38    39    1     0     0
SMALL
USER_CHARGES
@<TRIPOS>ATOM
1      C1     -0.0157    1.3058    0.0092 C.2      1 ZINC000000001536   -0.1900
2      C2      0.0021   -0.0041    0.0020 C.2      1 ZINC000000001536   -0.1500
3      C3      1.3172   -0.7397   -0.0145 C.3      1 ZINC000000001536   -0.0600
4      C4      1.3689   -1.7024    1.1438 C.ar     1 ZINC000000001536   -0.0800
5      C5      1.8734   -1.2872    2.3631 C.ar     1 ZINC000000001536   -0.1000
6      C6      1.9245   -2.1629    3.4316 C.ar     1 ZINC000000001536   -0.1400
7      C7      1.4695   -3.4631    3.2855 C.ar     1 ZINC000000001536    0.1100
8      O8      1.5187   -4.3245    4.3350 O.3      1 ZINC000000001536   -0.4900
9      C9      0.9589   -3.8858    2.0542 C.ar     1 ZINC000000001536   -0.0700
10     C10     0.4689   -5.2759    1.8885 C.ar     1 ZINC000000001536   -0.0600
11     C11    -0.7837   -5.5123    1.3250 C.ar     1 ZINC000000001536   -0.0900
12     C12    -1.2363   -6.8062    1.1718 C.ar     1 ZINC000000001536   -0.1500
13     C13    -0.4459   -7.8722    1.5786 C.ar     1 ZINC000000001536    0.1100
14     O14    -0.8946   -9.1458    1.4263 O.3      1 ZINC000000001536   -0.4900
15     C15     0.8024   -7.6400    2.1403 C.ar     1 ZINC000000001536   -0.1100
16     C16     1.6576   -8.8002    2.5801 C.3      1 ZINC000000001536   -0.0500
17     C17     1.1853   -9.2911    3.9244 C.2      1 ZINC000000001536   -0.1500
18     C18     0.8606  -10.5501    4.0849 C.2      1 ZINC000000001536   -0.1800
19     C19     1.2629   -6.3489    2.2908 C.ar     1 ZINC000000001536   -0.0700
20     C20     0.9072   -2.9939    0.9859 C.ar     1 ZINC000000001536   -0.0900
21     H21     0.9122    1.8585    0.0033 H        1 ZINC000000001536    0.1000
22     H22    -0.9582    1.8330    0.0166 H        1 ZINC000000001536    0.1000
23     H23    -0.9258   -0.5567    0.0079 H        1 ZINC000000001536    0.1100
24     H24     1.4134   -1.2911   -0.9498 H        1 ZINC000000001536    0.0800
25     H25     2.1349   -0.0241    0.0711 H        1 ZINC000000001536    0.0800
26     H26     2.2294   -0.2744    2.4807 H        1 ZINC000000001536    0.1300
27     H27     2.3198   -1.8331    4.3810 H        1 ZINC000000001536    0.1300
28     H28     0.7243   -4.3187    4.8862 H        1 ZINC000000001536    0.3900
29     H29    -1.3994   -4.6832    1.0090 H        1 ZINC000000001536    0.1300
30     H30    -2.2069   -6.9900    0.7352 H        1 ZINC000000001536    0.1300
31     H31    -0.6568   -9.5481    0.5797 H        1 ZINC000000001536    0.3900
32     H32     1.5790   -9.6065    1.8508 H        1 ZINC000000001536    0.0800
33     H33     2.6962   -8.4782    2.6552 H        1 ZINC000000001536    0.0800
34     H34     1.1147   -8.6050    4.7555 H        1 ZINC000000001536    0.1100
35     H35     0.9313  -11.2361    3.2538 H        1 ZINC000000001536    0.1000
36     H36     0.5222  -10.9019    5.0483 H        1 ZINC000000001536    0.1000
37     H37     2.2341   -6.1689    2.7274 H        1 ZINC000000001536    0.1300
38     H38     0.5139   -3.3146    0.0325 H        1 ZINC000000001536    0.1300
@<TRIPOS>BOND
1     1     2     2
2     1     21    1
3     1     22    1
4     2     3     1
5     2     23    1
6     3     4     1
7     3     24    1
8     3     25    1
9     4     20    ar
10    4     5     ar
11    5     6     ar
12    5     26    1
13    6     7     ar
14    6     27    1
15    7     8     1
16    7     9     ar
17    8     28    1
18    9     10    1
19    9     20    ar
20    10    19    ar
21    10    11    ar
22    11    12    ar
23    11    29    1
24    12    13    ar
25    12    30    1
26    13    14    1
27    13    15    ar
28    14    31    1
29    15    16    1
30    15    19    ar
31    16    17    1
32    16    32    1
33    16    33    1
34    17    18    2
35    17    34    1
36    18    35    1
37    18    36    1
38    19    37    1
39    20    38    1
@<TRIPOS>SUBSTRUCTURE
1   ZINC000000001536 1     RESIDUE    1   A     ZIN   1


@<TRIPOS>MOLECULE
C1=CC(=CC=C1C2=C(C(=O)C3=C(C=C(C=C3O2)O)O)O)O
30    32    1     0     0
SMALL
USER_CHARGES
@<TRIPOS>ATOM
1      O1     -0.9048    1.1655   -0.0632 O.2      1 ZINC000003869768   -0.5400
2      C2     -0.5701    2.3395   -0.0199 C.2      1 ZINC000003869768    0.4200
3      C3     -1.5294    3.3609    0.0376 C.2      1 ZINC000003869768   -0.4900
4      C4     -1.1404    4.6820    0.0811 C.2      1 ZINC000003869768    0.3200
5      O5     -2.0949    5.6416    0.1450 O.3      1 ZINC000003869768   -0.6800
6      C6      0.2051    5.0693    0.0623 C.2      1 ZINC000003869768   -0.1500
7      C7      1.2048    4.1461    0.0032 C.2      1 ZINC000003869768    0.1000
8      O8      2.4999    4.5378   -0.0408 O.3      1 ZINC000003869768   -0.2900
9      C9      3.4781    3.6588    0.5261 C.3      1 ZINC000003869768    0.1100
10     C10     3.3163    3.6169    2.0238 C.ar     1 ZINC000003869768   -0.1400
11     C11     4.2966    3.0372    2.8079 C.ar     1 ZINC000003869768   -0.0900
12     C12     4.1507    2.9975    4.1810 C.ar     1 ZINC000003869768   -0.1500
13     C13     3.0196    3.5403    4.7732 C.ar     1 ZINC000003869768    0.1100
14     O14     2.8739    3.5029    6.1238 O.3      1 ZINC000003869768   -0.5000
15     C15     2.0377    4.1218    3.9843 C.ar     1 ZINC000003869768   -0.1400
16     C16     2.1906    4.1633    2.6119 C.ar     1 ZINC000003869768   -0.0800
17     C17     3.2629    2.2730   -0.0503 C.2      1 ZINC000003869768    0.3500
18     O18     4.1801    1.6138   -0.4788 O.2      1 ZINC000003869768   -0.4200
19     C19     1.8579    1.7646   -0.0606 C.2      1 ZINC000003869768    0.0800
20     O20     1.5806    0.4472   -0.1012 O.3      1 ZINC000003869768   -0.4100
21     C21     0.8539    2.7219   -0.0203 C.2      1 ZINC000003869768   -0.1600
22     H22    -2.5799    3.1103    0.0475 H        1 ZINC000003869768    0.1100
23     H23     0.4548    6.1196    0.0948 H        1 ZINC000003869768    0.1300
24     H24     4.4784    4.0109    0.2743 H        1 ZINC000003869768    0.1500
25     H25     5.1769    2.6148    2.3464 H        1 ZINC000003869768    0.1300
26     H26     4.9163    2.5440    4.7930 H        1 ZINC000003869768    0.1300
27     H27     3.2407    4.2724    6.5804 H        1 ZINC000003869768    0.3900
28     H28     1.1561    4.5448    4.4429 H        1 ZINC000003869768    0.1400
29     H29     1.4266    4.6161    1.9974 H        1 ZINC000003869768    0.1500
30     H30     2.3333   -0.1594   -0.1235 H        1 ZINC000003869768    0.4000
@<TRIPOS>BOND
1     1     2     2
2     2     21    1
3     2     3     1
4     3     4     2
5     3     22    1
6     4     5     1
7     4     6     1
8     6     7     2
9     6     23    1
10    7     21    1
11    7     8     1
12    8     9     1
13    9     10    1
14    9     17    1
15    9     24    1
16    10    16    ar
17    10    11    ar
18    11    12    ar
19    11    25    1
20    12    13    ar
21    12    26    1
22    13    14    1
23    13    15    ar
24    14    27    1
25    15    16    ar
26    15    28    1
27    16    29    1
28    17    18    2
29    17    19    1
30    19    20    1
31    19    21    2
32    20    30    1
@<TRIPOS>SUBSTRUCTURE
1   ZINC000003869768 1     RESIDUE    1   A     ZIN   1


@<TRIPOS>MOLECULE
C1=CC(=C(C=C1C2=C(C(=O)C3=C(C=C(C=C3O2)O)O)O)O)O
  31   33    0    0    0
SMALL
USER_CHARGES
NO_NAME
@<TRIPOS>ATOM
    1 O1       -0.9038     1.1636    -0.0631 O.2    1 <0>      -0.5400
    2 C2       -0.5695     2.3377    -0.0199 C.2    1 <0>       0.4200
    3 C3       -1.5293     3.3587     0.0376 C.2    1 <0>      -0.4900
    4 C4       -1.1408     4.6800     0.0810 C.2    1 <0>       0.3200
    5 O5       -2.0957     5.6392     0.1448 O.3    1 <0>      -0.6800
    6 C6        0.2045     5.0679     0.0621 C.2    1 <0>      -0.1500
    7 C7        1.2046     4.1451     0.0031 C.2    1 <0>       0.1000
    8 O8        2.4995     4.5373    -0.0408 O.3    1 <0>      -0.2900
    9 C9        3.4781     3.6588     0.5261 C.3    1 <0>       0.1100
   10 C10       3.3163     3.6169     2.0238 C.ar   1 <0>      -0.1200
   11 C11       4.2964     3.0373     2.8072 C.ar   1 <0>      -0.1000
   12 C12       4.1524     2.9959     4.1819 C.ar   1 <0>      -0.1300
   13 C13       3.0242     3.5366     4.7767 C.ar   1 <0>       0.0900
   14 O14       2.8813     3.4971     6.1286 O.3    1 <0>      -0.4900
   15 C15       2.0374     4.1207     3.9878 C.ar   1 <0>       0.0900
   16 O16       0.9282     4.6533     4.5671 O.3    1 <0>      -0.4800
   17 C17       2.1903     4.1635     2.6116 C.ar   1 <0>      -0.1100
   18 C18       3.2635     2.2729    -0.0502 C.2    1 <0>       0.3500
   19 O19       4.1810     1.6140    -0.4787 O.2    1 <0>      -0.4200
   20 C20       1.8587     1.7638    -0.0605 C.2    1 <0>       0.0800
   21 O21       1.5820     0.4464    -0.1010 O.3    1 <0>      -0.4100
   22 C22       0.8543     2.7208    -0.0203 C.2    1 <0>      -0.1600
   23 H23      -2.5797     3.1077     0.0475 H      1 <0>       0.1100
   24 H24       0.4538     6.1183     0.0946 H      1 <0>       0.1300
   25 H25       4.4783     4.0113     0.2743 H      1 <0>       0.1600
   26 H26       5.1764     2.6154     2.3447 H      1 <0>       0.1300
   27 H27       4.9194     2.5418     4.7918 H      1 <0>       0.1400
   28 H28       3.2488     4.2661     6.5855 H      1 <0>       0.3900
   29 H29       1.0165     5.5875     4.8006 H      1 <0>       0.3900
   30 H30       1.4261     4.6161     1.9972 H      1 <0>       0.1600
   31 H31       2.3350    -0.1599    -0.1234 H      1 <0>       0.4000
@<TRIPOS>BOND
   1    1    2 2
   2    2   22 1
   3    2    3 1
   4    3    4 2
   5    3   23 1
   6    4    5 1
   7    4    6 1
   8    6    7 2
   9    6   24 1
  10    7   22 1
  11    7    8 1
  12    8    9 1
  13    9   10 1
  14    9   18 1
  15    9   25 1
  16   10   17 ar
  17   10   11 ar
  18   11   12 ar
  19   11   26 1
  20   12   13 ar
  21   12   27 1
  22   13   14 1
  23   13   15 ar
  24   14   28 1
  25   15   16 1
  26   15   17 ar
  27   16   29 1
  28   17   30 1
  29   18   19 2
  30   18   20 1
  31   20   21 1
  32   20   22 2
  33   21   31 1


@<TRIPOS>MOLECULE
CC(=CCC1=C(C=CC2=C1OC(=O)C=C2)OC)C
  34   35    0    0    0
SMALL
USER_CHARGES
NO_NAME
@<TRIPOS>ATOM
    1 C1       -0.9722     0.6108    -0.7951 C.3    1 <0>       0.0200
    2 O2       -0.7091    -0.7520    -0.4551 O.3    1 <0>      -0.3000
    3 C3       -0.1562    -1.5320    -1.4189 C.ar   1 <0>       0.1900
    4 C4        0.1315    -0.9866    -2.6683 C.ar   1 <0>      -0.2200
    5 C5        0.6879    -1.7576    -3.6477 C.ar   1 <0>      -0.0200
    6 C6        0.9713    -3.1045    -3.3954 C.ar   1 <0>      -0.2000
    7 C7        1.5685    -3.9555    -4.4267 C.2    1 <0>       0.0100
    8 C8        1.8201    -5.2548    -4.1202 C.2    1 <0>      -0.2600
    9 C9        1.5054    -5.7463    -2.8367 C.2    1 <0>       0.5100
   10 O10       1.7361    -6.9133    -2.5752 O.2    1 <0>      -0.4600
   11 O11       0.9584    -4.9611    -1.8955 O.3    1 <0>      -0.2700
   12 C12       0.6827    -3.6611    -2.1352 C.ar   1 <0>       0.1900
   13 C13       0.1225    -2.8623    -1.1502 C.ar   1 <0>      -0.1300
   14 C14      -0.1870    -3.4404     0.2067 C.3    1 <0>      -0.0400
   15 C15       1.0095    -3.2753     1.1079 C.2    1 <0>      -0.1600
   16 C16       0.8780    -2.6839     2.2694 C.2    1 <0>      -0.1200
   17 C17      -0.4352    -2.0484     2.6469 C.3    1 <0>      -0.1300
   18 C18       2.0399    -2.6392     3.2280 C.3    1 <0>      -0.1200
   19 H19      -0.0396     1.1030    -1.0710 H      1 <0>       0.0600
   20 H20      -1.6652     0.6483    -1.6356 H      1 <0>       0.0600
   21 H21      -1.4124     1.1206     0.0619 H      1 <0>       0.1100
   22 H22      -0.0874     0.0528    -2.8633 H      1 <0>       0.1400
   23 H23       0.9085    -1.3295    -4.6144 H      1 <0>       0.1400
   24 H24       1.8024    -3.5609    -5.4045 H      1 <0>       0.1500
   25 H25       2.2597    -5.9097    -4.8580 H      1 <0>       0.1600
   26 H26      -1.0413    -2.9185     0.6377 H      1 <0>       0.0900
   27 H27      -0.4219    -4.5000     0.1052 H      1 <0>       0.0900
   28 H28       1.9754    -3.6445     0.7962 H      1 <0>       0.1100
   29 H29      -1.0986    -2.8057     3.0647 H      1 <0>       0.0600
   30 H30      -0.2616    -1.2685     3.3884 H      1 <0>       0.0600
   31 H31      -0.8954    -1.6112     1.7608 H      1 <0>       0.0800
   32 H32       2.6296    -1.7414     3.0426 H      1 <0>       0.0600
   33 H33       1.6659    -2.6232     4.2517 H      1 <0>       0.0600
   34 H34       2.6646    -3.5205     3.0831 H      1 <0>       0.0600
@<TRIPOS>BOND
   1    1    2 1
   2    1   19 1
   3    1   20 1
   4    1   21 1
   5    2    3 1
   6    3   13 ar
   7    3    4 ar
   8    4    5 ar
   9    4   22 1
  10    5    6 ar
  11    5   23 1
  12    6   12 ar
  13    6    7 1
  14    7    8 2
  15    7   24 1
  16    8    9 1
  17    8   25 1
  18    9   10 2
  19    9   11 1
  20   11   12 1
  21   12   13 ar
  22   13   14 1
  23   14   15 1
  24   14   26 1
  25   14   27 1
  26   15   16 2
  27   15   28 1
  28   16   17 1
  29   16   18 1
  30   17   29 1
  31   17   30 1
  32   17   31 1
  33   18   32 1
  34   18   33 1
  35   18   34 1


@<TRIPOS>MOLECULE
COC1=C(C=CC(=C1)C2=C(C(=O)C3=C(C=C(C=C3O2)O)O)O)O
34    36    1     0     0
SMALL
USER_CHARGES
@<TRIPOS>ATOM
1      C1     -0.5362    0.6234   -2.4197 C.3      1 ZINC000000517261    0.0200
2      O2     -0.3443   -0.5391   -1.6110 O.3      1 ZINC000000517261   -0.3100
3      C3     -1.3764   -0.9087   -0.8063 C.ar     1 ZINC000000517261    0.1000
4      C4     -2.5456   -0.1731   -0.8010 C.ar     1 ZINC000000517261   -0.1700
5      C5     -3.6049   -0.5563    0.0273 C.ar     1 ZINC000000517261    0.0000
6      C6     -4.8556    0.2247    0.0368 C.2      1 ZINC000000517261    0.1200
7      C7     -6.0430   -0.4372   -0.0543 C.2      1 ZINC000000517261   -0.0500
8      O8     -6.0661   -1.7944   -0.1515 O.3      1 ZINC000000517261   -0.4600
9      C9     -7.2554    0.3001   -0.0465 C.2      1 ZINC000000517261    0.4000
10     O10    -8.3379   -0.2586   -0.1259 O.2      1 ZINC000000517261   -0.5000
11     C11    -7.1569    1.7644    0.0616 C.ar     1 ZINC000000517261   -0.3700
12     C12    -8.3025    2.5705    0.0773 C.ar     1 ZINC000000517261    0.2200
13     O13    -9.5350    2.0088   -0.0078 O.3      1 ZINC000000517261   -0.4900
14     C14    -8.1681    3.9427    0.1806 C.ar     1 ZINC000000517261   -0.2900
15     C15    -6.9043    4.5164    0.2676 C.ar     1 ZINC000000517261    0.3300
16     O16    -6.7839    5.8648    0.3687 O.3      1 ZINC000000517261   -0.6900
17     C17    -5.7663    3.7249    0.2527 C.ar     1 ZINC000000517261   -0.2900
18     C18    -5.8803    2.3471    0.1503 C.ar     1 ZINC000000517261    0.2000
19     O19    -4.7821    1.5628    0.1404 O.3      1 ZINC000000517261   -0.2100
20     C20    -3.4756   -1.6814    0.8457 C.ar     1 ZINC000000517261   -0.0900
21     C21    -2.3055   -2.4106    0.8349 C.ar     1 ZINC000000517261   -0.1100
22     C22    -1.2565   -2.0332    0.0089 C.ar     1 ZINC000000517261    0.0800
23     O23    -0.1057   -2.7557    0.0019 O.3      1 ZINC000000517261   -0.4900
24     H24     0.3606    0.8064   -3.0115 H        1 ZINC000000517261    0.1000
25     H25    -1.3851    0.4668   -3.0853 H        1 ZINC000000517261    0.0600
26     H26    -0.7307    1.4835   -1.7791 H        1 ZINC000000517261    0.0600
27     H27    -2.6412    0.6960   -1.4349 H        1 ZINC000000517261    0.1400
28     H28    -6.9555   -2.1694   -0.2111 H        1 ZINC000000517261    0.4000
29     H29    -9.9243    1.7832    0.8481 H        1 ZINC000000517261    0.3800
30     H30    -9.0468    4.5705    0.1933 H        1 ZINC000000517261    0.1200
31     H31    -4.7902    4.1820    0.3210 H        1 ZINC000000517261    0.1200
32     H32    -4.2919   -1.9797    1.4868 H        1 ZINC000000517261    0.1400
33     H33    -2.2067   -3.2801    1.4679 H        1 ZINC000000517261    0.1400
34     H34    -0.0966   -3.4747   -0.6446 H        1 ZINC000000517261    0.3900
@<TRIPOS>BOND
1     1     2     1
2     1     24    1
3     1     25    1
4     1     26    1
5     2     3     1
6     3     22    ar
7     3     4     ar
8     4     5     ar
9     4     27    1
10    5     6     1
11    5     20    ar
12    6     19    1
13    6     7     2
14    7     8     1
15    7     9     1
16    8     28    1
17    9     10    2
18    9     11    1
19    11    18    ar
20    11    12    ar
21    12    13    1
22    12    14    ar
23    13    29    1
24    14    15    ar
25    14    30    1
26    15    16    1
27    15    17    ar
28    17    18    ar
29    17    31    1
30    18    19    1
31    20    21    ar
32    20    32    1
33    21    22    ar
34    21    33    1
35    22    23    1
36    23    34    1
@<TRIPOS>SUBSTRUCTURE
1   ZINC000000517261 1     RESIDUE    1   A     ZIN   1


@<TRIPOS>MOLECULE
CCCCCC1=CC2=C([C@@H]3C=C(CC[C@H]3C(O2)(C)C)C)C(=C1C(=O)O)O
  55   57    0    0    0
SMALL
USER_CHARGES
NO_NAME
@<TRIPOS>ATOM
    1 C1        0.7071     1.8834    -0.7852 C.3    1 <0>      -0.1500
    2 C2        0.6399     0.3673    -0.5908 C.3    1 <0>      -0.1300
    3 C3        1.1644    -0.3316    -1.8467 C.3    1 <0>      -0.1200
    4 C4        1.0972    -1.8477    -1.6524 C.3    1 <0>      -0.1200
    5 C5        1.6217    -2.5466    -2.9083 C.3    1 <0>      -0.0800
    6 C6        1.5555    -4.0399    -2.7169 C.ar   1 <0>      -0.0200
    7 C7        2.6522    -4.7183    -2.2781 C.ar   1 <0>      -0.1600
    8 C8        2.6139    -6.1033    -2.0959 C.ar   1 <0>       0.1300
    9 C9        1.4425    -6.7978    -2.3715 C.ar   1 <0>      -0.1900
   10 C10       0.3188    -6.1198    -2.8132 C.ar   1 <0>       0.1500
   11 O11      -0.8257    -6.7990    -3.0737 O.3    1 <0>      -0.4800
   12 C12       0.3649    -4.7268    -2.9850 C.ar   1 <0>      -0.1500
   13 C13      -0.8215    -3.9983    -3.4530 C.2    1 <0>       0.5400
   14 O14      -1.6505    -3.5969    -2.6472 O.co2  1 <0>      -0.6800
   15 O15      -0.9811    -3.7928    -4.6489 O.co2  1 <0>      -0.6900
   16 C16       1.4013    -8.2860    -2.2015 C.3    1 <0>       0.0000
   17 H17       1.6468    -8.7470    -3.1583 H      1 <0>       0.0800
   18 C18       0.0786    -8.8132    -1.7519 C.2    1 <0>      -0.1400
   19 C19      -0.0168    -9.8497    -0.9709 C.2    1 <0>      -0.1500
   20 C20      -1.4018   -10.3139    -0.6002 C.3    1 <0>      -0.1200
   21 C21       1.1413   -10.6186    -0.4113 C.3    1 <0>      -0.0800
   22 C22       2.4597   -10.2189    -1.0846 C.3    1 <0>      -0.1100
   23 C23       2.4705    -8.6958    -1.1833 C.3    1 <0>      -0.1100
   24 H24       2.2436    -8.2674    -0.2070 H      1 <0>       0.0800
   25 C25       3.7994    -8.1397    -1.6854 C.3    1 <0>       0.1200
   26 C26       4.9366    -8.6177    -0.7804 C.3    1 <0>      -0.1400
   27 C27       4.0479    -8.6071    -3.1209 C.3    1 <0>      -0.1800
   28 O28       3.7335    -6.7216    -1.6440 O.3    1 <0>      -0.3100
   29 H29       1.7405     2.1816    -0.9621 H      1 <0>       0.0500
   30 H30       0.0953     2.1675    -1.6414 H      1 <0>       0.0500
   31 H31       0.3334     2.3814     0.1096 H      1 <0>       0.0500
   32 H32       1.2517     0.0833     0.2654 H      1 <0>       0.0600
   33 H33      -0.3935     0.0692    -0.4138 H      1 <0>       0.0600
   34 H34       0.5525    -0.0475    -2.7029 H      1 <0>       0.0600
   35 H35       2.1978    -0.0334    -2.0237 H      1 <0>       0.0500
   36 H36       1.7090    -2.1317    -0.7962 H      1 <0>       0.0500
   37 H37       0.0638    -2.1459    -1.4754 H      1 <0>       0.0800
   38 H38       1.0098    -2.2626    -3.7645 H      1 <0>       0.0800
   39 H39       2.6551    -2.2484    -3.0853 H      1 <0>       0.0600
   40 H40       3.5638    -4.1785    -2.0685 H      1 <0>       0.1200
   41 H41      -0.8799    -7.1476    -3.9740 H      1 <0>       0.3800
   42 H42      -0.8234    -8.3207    -2.0836 H      1 <0>       0.1500
   43 H43      -2.1406    -9.6679    -1.0745 H      1 <0>       0.0600
   44 H44      -1.5444   -11.3396    -0.9402 H      1 <0>       0.0600
   45 H45      -1.5221   -10.2698     0.4822 H      1 <0>       0.0600
   46 H46       1.2144   -10.4239     0.6587 H      1 <0>       0.0700
   47 H47       0.9703   -11.6838    -0.5674 H      1 <0>       0.0700
   48 H48       3.3009   -10.5572    -0.4797 H      1 <0>       0.0700
   49 H49       2.5163   -10.6623    -2.0787 H      1 <0>       0.0700
   50 H50       4.9752    -9.7070    -0.7900 H      1 <0>       0.0800
   51 H51       5.8830    -8.2174    -1.1439 H      1 <0>       0.0600
   52 H52       4.7618    -8.2693     0.2376 H      1 <0>       0.0600
   53 H53       3.2426    -8.2511    -3.7635 H      1 <0>       0.0700
   54 H54       4.9983    -8.2068    -3.4739 H      1 <0>       0.0600
   55 H55       4.0799    -9.6963    -3.1480 H      1 <0>       0.0700
@<TRIPOS>BOND
   1    1    2 1
   2    1   29 1
   3    1   30 1
   4    1   31 1
   5    2    3 1
   6    2   32 1
   7    2   33 1
   8    3    4 1
   9    3   34 1
  10    3   35 1
  11    4    5 1
  12    4   36 1
  13    4   37 1
  14    5    6 1
  15    5   38 1
  16    5   39 1
  17    6   12 ar
  18    6    7 ar
  19    7    8 ar
  20    7   40 1
  21    8   28 1
  22    8    9 ar
  23    9   10 ar
  24    9   16 1
  25   10   11 1
  26   10   12 ar
  27   11   41 1
  28   12   13 1
  29   13   14 ar
  30   13   15 ar
  31   16   17 1
  32   16   23 1
  33   16   18 1
  34   18   19 2
  35   18   42 1
  36   19   20 1
  37   19   21 1
  38   20   43 1
  39   20   44 1
  40   20   45 1
  41   21   22 1
  42   21   46 1
  43   21   47 1
  44   22   23 1
  45   22   48 1
  46   22   49 1
  47   23   24 1
  48   23   25 1
  49   25   26 1
  50   25   27 1
  51   25   28 1
  52   26   50 1
  53   26   51 1
  54   26   52 1
  55   27   53 1
  56   27   54 1
  57   27   55 1


@<TRIPOS>MOLECULE
C1[C@H]([C@H]([C@@H](C[C@@]1(C(=O)O)O)OC(=O)/C=C/C2=CC(=C(C=C2)O)O)O)O
42    43    1     0     0
SMALL
USER_CHARGES
@<TRIPOS>ATOM
1      O1      0.0021   -0.0041    0.0020 O.co2    1 ZINC000001529781   -0.6800
2      C2     -0.0145    1.2150    0.0087 C.2      1 ZINC000001529781    0.4800
3      O3      1.0330    1.8389    0.0021 O.co2    1 ZINC000001529781   -0.6900
4      C4     -1.3296    1.9507    0.0190 C.3      1 ZINC000001529781    0.0700
5      O5     -2.4031    1.0074    0.0189 O.3      1 ZINC000001529781   -0.5400
6      C6     -1.4285    2.8359   -1.2250 C.3      1 ZINC000001529781   -0.1600
7      C7     -2.7638    3.5828   -1.2146 C.3      1 ZINC000001529781    0.0800
8      H8     -3.5826    2.8633   -1.2147 H        1 ZINC000001529781    0.0700
9      O9     -2.8562    4.4096   -2.3765 O.3      1 ZINC000001529781   -0.5800
10     C10    -2.8509    4.4545    0.0398 C.3      1 ZINC000001529781    0.1000
11     H11    -2.0321    5.1740    0.0398 H        1 ZINC000001529781    0.0700
12     O12    -4.0980    5.1521    0.0495 O.3      1 ZINC000001529781   -0.5500
13     C13    -2.7520    3.5692    1.2838 C.3      1 ZINC000001529781    0.1100
14     H14    -2.8140    4.1902    2.1774 H        1 ZINC000001529781    0.0900
15     O15    -3.8254    2.6260    1.2837 O.3      1 ZINC000001529781   -0.3000
16     C16    -4.9700    3.0005    1.8923 C.2      1 ZINC000001529781    0.4900
17     O17    -5.0531    4.0987    2.4088 O.2      1 ZINC000001529781   -0.5100
18     C18    -6.0758    2.1140    1.9299 C.2      1 ZINC000001529781   -0.1700
19     C19    -7.2217    2.4889    2.5392 C.2      1 ZINC000001529781   -0.0200
20     C20    -8.3679    1.5700    2.5781 C.ar     1 ZINC000001529781   -0.0600
21     C21    -8.2726    0.3040    1.9896 C.ar     1 ZINC000001529781   -0.0900
22     C22    -9.3488   -0.5555    2.0275 C.ar     1 ZINC000001529781   -0.1300
23     C23   -10.5290   -0.1690    2.6480 C.ar     1 ZINC000001529781    0.0900
24     O24   -11.5866   -1.0205    2.6817 O.3      1 ZINC000001529781   -0.4900
25     C25   -10.6318    1.0911    3.2373 C.ar     1 ZINC000001529781    0.0800
26     O26   -11.7898    1.4652    3.8444 O.3      1 ZINC000001529781   -0.4900
27     C27    -9.5566    1.9565    3.2091 C.ar     1 ZINC000001529781   -0.1100
28     C28    -1.4167    2.8223    1.2734 C.3      1 ZINC000001529781   -0.0900
29     H29    -2.4106    0.4202   -0.7493 H        1 ZINC000001529781    0.3600
30     H30    -0.6098    3.5554   -1.2250 H        1 ZINC000001529781    0.0800
31     H31    -1.3665    2.2150   -2.1187 H        1 ZINC000001529781    0.0600
32     H32    -2.8081    3.9227   -3.2106 H        1 ZINC000001529781    0.3800
33     H33    -4.2292    5.7337   -0.7118 H        1 ZINC000001529781    0.3800
34     H34    -6.0020    1.1389    1.4713 H        1 ZINC000001529781    0.1400
35     H35    -7.2955    3.4639    2.9978 H        1 ZINC000001529781    0.1400
36     H36    -7.3560    0.0008    1.5056 H        1 ZINC000001529781    0.1400
37     H37    -9.2741   -1.5324    1.5730 H        1 ZINC000001529781    0.1400
38     H38   -11.6002   -1.6002    3.4556 H        1 ZINC000001529781    0.3900
39     H39   -11.8319    1.2401    4.7839 H        1 ZINC000001529781    0.3900
40     H40    -9.6349    2.9323    3.6654 H        1 ZINC000001529781    0.1400
41     H41    -1.3462    2.1917    2.1596 H        1 ZINC000001529781    0.0800
42     H42    -0.5979    3.5418    1.2734 H        1 ZINC000001529781    0.1000
@<TRIPOS>BOND
1     1     2     ar
2     2     3     ar
3     2     4     1
4     4     28    1
5     4     5     1
6     4     6     1
7     5     29    1
8     6     7     1
9     6     30    1
10    6     31    1
11    7     8     1
12    7     9     1
13    7     10    1
14    9     32    1
15    10    11    1
16    10    12    1
17    10    13    1
18    12    33    1
19    13    14    1
20    13    15    1
21    13    28    1
22    15    16    1
23    16    17    2
24    16    18    1
25    18    19    2
26    18    34    1
27    19    20    1
28    19    35    1
29    20    27    ar
30    20    21    ar
31    21    22    ar
32    21    36    1
33    22    23    ar
34    22    37    1
35    23    24    1
36    23    25    ar
37    24    38    1
38    25    26    1
39    25    27    ar
40    26    39    1
41    27    40    1
42    28    41    1
43    28    42    1
@<TRIPOS>SUBSTRUCTURE
1   ZINC000001529781 1     RESIDUE    1   A     ZIN   1


@<TRIPOS>MOLECULE
CC(=CCC/C(=C/CC/C(=C/CC/C(=C/CO)/C)/C)/C)C
55    54    1     0     0
SMALL
USER_CHARGES
@<TRIPOS>ATOM
1      C1      0.4942    1.5805    0.0258 C.3      1 ZINC000001531391   -0.1200
2      C2      0.2199    0.0987    0.0375 C.2      1 ZINC000001531391   -0.1300
3      C3      0.3751   -0.6863    1.3145 C.3      1 ZINC000001531391   -0.1200
4      C4     -0.1535   -0.5070   -1.0624 C.2      1 ZINC000001531391   -0.1700
5      C5     -0.1857    0.2494   -2.3654 C.3      1 ZINC000001531391   -0.0900
6      C6      0.6527   -0.4939   -3.4074 C.3      1 ZINC000001531391   -0.0800
7      C7      0.6205    0.2625   -4.7104 C.2      1 ZINC000001531391   -0.1300
8      C8     -0.5131    0.0461   -5.6795 C.3      1 ZINC000001531391   -0.1200
9      C9      1.5780    1.1081   -5.0007 C.2      1 ZINC000001531391   -0.1600
10     C10     1.4823    1.9579   -6.2416 C.3      1 ZINC000001531391   -0.0900
11     C11     1.6350    3.4324   -5.8629 C.3      1 ZINC000001531391   -0.0800
12     C12     1.5393    4.2822   -7.1038 C.2      1 ZINC000001531391   -0.1300
13     C13     2.7635    4.5218   -7.9493 C.3      1 ZINC000001531391   -0.1200
14     C14     0.3918    4.8126   -7.4474 C.2      1 ZINC000001531391   -0.1600
15     C15     0.2693    5.5669   -8.7463 C.3      1 ZINC000001531391   -0.0900
16     C16    -0.8717    4.9734   -9.5751 C.3      1 ZINC000001531391   -0.0800
17     C17    -0.9943    5.7277  -10.8739 C.2      1 ZINC000001531391   -0.1100
18     C18    -1.8038    6.9974  -10.9344 C.3      1 ZINC000001531391   -0.1300
19     C19    -0.3971    5.2797  -11.9504 C.2      1 ZINC000001531391   -0.1600
20     C20    -0.5197    6.0340  -13.2493 C.3      1 ZINC000001531391    0.1000
21     O21     0.7645    6.1266  -13.8693 O.3      1 ZINC000001531391   -0.5700
22     H22     0.7025    1.9194    1.0406 H        1 ZINC000001531391    0.0600
23     H23     1.3557    1.7855   -0.6097 H        1 ZINC000001531391    0.0700
24     H24    -0.3771    2.1083   -0.3619 H        1 ZINC000001531391    0.0700
25     H25     0.6897   -0.0178    2.1160 H        1 ZINC000001531391    0.0600
26     H26    -0.5781   -1.1450    1.5772 H        1 ZINC000001531391    0.0600
27     H27     1.1260   -1.4638    1.1741 H        1 ZINC000001531391    0.0700
28     H28    -0.4383   -1.5484   -1.0353 H        1 ZINC000001531391    0.1100
29     H29    -1.2151    0.3268   -2.7153 H        1 ZINC000001531391    0.0700
30     H30     0.2233    1.2486   -2.2157 H        1 ZINC000001531391    0.0700
31     H31     1.6821   -0.5712   -3.0575 H        1 ZINC000001531391    0.0700
32     H32     0.2438   -1.4931   -3.5571 H        1 ZINC000001531391    0.0700
33     H33    -1.1588   -0.7510   -5.3111 H        1 ZINC000001531391    0.0600
34     H34    -1.0899    0.9660   -5.7751 H        1 ZINC000001531391    0.0700
35     H35    -0.1104   -0.2331   -6.6531 H        1 ZINC000001531391    0.0700
36     H36     2.4361    1.1962   -4.3508 H        1 ZINC000001531391    0.1100
37     H37     2.2740    1.6772   -6.9362 H        1 ZINC000001531391    0.0700
38     H38     0.5124    1.8027   -6.7142 H        1 ZINC000001531391    0.0700
39     H39     0.8433    3.7131   -5.1683 H        1 ZINC000001531391    0.0700
40     H40     2.6049    3.5876   -5.3903 H        1 ZINC000001531391    0.0700
41     H41     3.5996    3.9485   -7.5488 H        1 ZINC000001531391    0.0600
42     H42     2.5648    4.2071   -8.9738 H        1 ZINC000001531391    0.0700
43     H43     3.0116    5.5831   -7.9369 H        1 ZINC000001531391    0.0700
44     H44    -0.4664    4.7093   -6.7999 H        1 ZINC000001531391    0.1100
45     H45     0.0598    6.6163   -8.5387 H        1 ZINC000001531391    0.0700
46     H46     1.2029    5.4860   -9.3030 H        1 ZINC000001531391    0.0700
47     H47    -0.6623    3.9241   -9.7827 H        1 ZINC000001531391    0.0700
48     H48    -1.8054    5.0544   -9.0184 H        1 ZINC000001531391    0.0700
49     H49    -1.1611    7.8490  -10.7113 H        1 ZINC000001531391    0.0700
50     H50    -2.2254    7.1122  -11.9330 H        1 ZINC000001531391    0.0700
51     H51    -2.6103    6.9493  -10.2028 H        1 ZINC000001531391    0.0700
52     H52     0.1830    4.3698  -11.9070 H        1 ZINC000001531391    0.1100
53     H53    -1.2060    5.5071  -13.9121 H        1 ZINC000001531391    0.0500
54     H54    -0.9015    7.0359  -13.0530 H        1 ZINC000001531391    0.0600
55     H55     0.7611    6.6009  -14.7120 H        1 ZINC000001531391    0.3800
@<TRIPOS>BOND
1     1     2     1
2     1     22    1
3     1     23    1
4     1     24    1
5     2     3     1
6     2     4     2
7     3     25    1
8     3     26    1
9     3     27    1
10    4     5     1
11    4     28    1
12    5     6     1
13    5     29    1
14    5     30    1
15    6     7     1
16    6     31    1
17    6     32    1
18    7     8     1
19    7     9     2
20    8     33    1
21    8     34    1
22    8     35    1
23    9     10    1
24    9     36    1
25    10    11    1
26    10    37    1
27    10    38    1
28    11    12    1
29    11    39    1
30    11    40    1
31    12    13    1
32    12    14    2
33    13    41    1
34    13    42    1
35    13    43    1
36    14    15    1
37    14    44    1
38    15    16    1
39    15    45    1
40    15    46    1
41    16    17    1
42    16    47    1
43    16    48    1
44    17    18    1
45    17    19    2
46    18    49    1
47    18    50    1
48    18    51    1
49    19    20    1
50    19    52    1
51    20    21    1
52    20    53    1
53    20    54    1
54    21    55    1
@<TRIPOS>SUBSTRUCTURE
1   ZINC000001531391 1     RESIDUE    1   A     ZIN   1


@<TRIPOS>MOLECULE
CC(=CCC1=C(OC2=C(C1=O)C(=CC3=C2C=CC(O3)(C)C)O)C4=C(C=C(C=C4)O)O)C
55    58    1     0     0
SMALL
USER_CHARGES
@<TRIPOS>ATOM
1      C1      0.2952    0.9631    0.1288 C.3      1 ZINC000005195808   -0.1200
2      C2      0.0837   -0.5275    0.0620 C.2      1 ZINC000005195808   -0.1200
3      C3      1.2691   -1.4579    0.0715 C.3      1 ZINC000005195808   -0.1200
4      C4     -1.1306   -1.0145   -0.0045 C.2      1 ZINC000005195808   -0.1700
5      C5     -2.3161   -0.0841   -0.0141 C.3      1 ZINC000005195808   -0.0300
6      C6     -3.1744   -0.3765   -1.2177 C.2      1 ZINC000005195808   -0.2500
7      C7     -4.2344   -1.2256   -1.1144 C.2      1 ZINC000005195808    0.2000
8      C8     -4.5209   -1.8468    0.1898 C.ar     1 ZINC000005195808   -0.1000
9      C9     -4.8967   -1.0533    1.2778 C.ar     1 ZINC000005195808   -0.0500
10     C10    -5.1642   -1.6380    2.4950 C.ar     1 ZINC000005195808   -0.1500
11     C11    -5.0620   -3.0167    2.6473 C.ar     1 ZINC000005195808    0.1500
12     O12    -5.3280   -3.5853    3.8511 O.3      1 ZINC000005195808   -0.4900
13     C13    -4.6898   -3.8135    1.5741 C.ar     1 ZINC000005195808   -0.1800
14     C14    -4.4235   -3.2385    0.3440 C.ar     1 ZINC000005195808    0.1600
15     O15    -4.0594   -4.0162   -0.7068 O.3      1 ZINC000005195808   -0.4900
16     O16    -5.0278   -1.5168   -2.1576 O.3      1 ZINC000005195808   -0.2100
17     C17    -4.8323   -0.9871   -3.3823 C.ar     1 ZINC000005195808    0.2100
18     C18    -5.6742   -1.3049   -4.4480 C.ar     1 ZINC000005195808   -0.1700
19     C19    -6.8125   -2.2320   -4.2789 C.2      1 ZINC000005195808   -0.0800
20     C20    -7.3658   -2.7517   -5.3736 C.2      1 ZINC000005195808   -0.1800
21     C21    -6.8197   -2.3984   -6.7319 C.3      1 ZINC000005195808    0.1500
22     C22    -5.7101   -3.3847   -7.1020 C.3      1 ZINC000005195808   -0.1700
23     C23    -7.9426   -2.4905   -7.7670 C.3      1 ZINC000005195808   -0.1400
24     O24    -6.2898   -1.0724   -6.7295 O.3      1 ZINC000005195808   -0.2900
25     C25    -5.4521   -0.7426   -5.7138 C.ar     1 ZINC000005195808    0.2100
26     C26    -4.3959    0.1312   -5.9150 C.ar     1 ZINC000005195808   -0.2000
27     C27    -3.5518    0.4557   -4.8661 C.ar     1 ZINC000005195808    0.2400
28     O28    -2.5187    1.3120   -5.0668 O.3      1 ZINC000005195808   -0.4700
29     C29    -3.7655   -0.0991   -3.5972 C.ar     1 ZINC000005195808   -0.2800
30     C30    -2.8890    0.2329   -2.4606 C.2      1 ZINC000005195808    0.4300
31     O31    -1.9491    1.0011   -2.5885 O.2      1 ZINC000005195808   -0.4500
32     H32     1.3629    1.1767    0.1788 H        1 ZINC000005195808    0.0600
33     H33    -0.1276    1.4303   -0.7606 H        1 ZINC000005195808    0.0800
34     H34    -0.1968    1.3604    1.0166 H        1 ZINC000005195808    0.0600
35     H35     1.5150   -1.7226    1.1000 H        1 ZINC000005195808    0.0700
36     H36     1.0265   -2.3613   -0.4880 H        1 ZINC000005195808    0.0600
37     H37     2.1233   -0.9628   -0.3903 H        1 ZINC000005195808    0.0600
38     H38    -1.2822   -2.0827   -0.0524 H        1 ZINC000005195808    0.1100
39     H39    -2.9010   -0.2315    0.8938 H        1 ZINC000005195808    0.0800
40     H40    -1.9677    0.9478   -0.0583 H        1 ZINC000005195808    0.0900
41     H41    -4.9768    0.0176    1.1635 H        1 ZINC000005195808    0.1400
42     H42    -5.4540   -1.0238    3.3348 H        1 ZINC000005195808    0.1400
43     H43    -6.2536   -3.8382    3.9707 H        1 ZINC000005195808    0.4000
44     H44    -4.6120   -4.8836    1.6978 H        1 ZINC000005195808    0.1400
45     H45    -4.8047   -4.3962   -1.1918 H        1 ZINC000005195808    0.4000
46     H46    -7.1847   -2.4814   -3.2962 H        1 ZINC000005195808    0.1400
47     H47    -8.2050   -3.4260   -5.2871 H        1 ZINC000005195808    0.1400
48     H48    -6.1154   -4.3963   -7.1231 H        1 ZINC000005195808    0.0800
49     H49    -5.3123   -3.1320   -8.0848 H        1 ZINC000005195808    0.0700
50     H50    -4.9121   -3.3284   -6.3616 H        1 ZINC000005195808    0.0600
51     H51    -8.7393   -1.7955   -7.5017 H        1 ZINC000005195808    0.0700
52     H52    -7.5510   -2.2354   -8.7517 H        1 ZINC000005195808    0.0700
53     H53    -8.3377   -3.5063   -7.7851 H        1 ZINC000005195808    0.0800
54     H54    -4.2302    0.5599   -6.8923 H        1 ZINC000005195808    0.1500
55     H55    -2.7421    2.2405   -4.9146 H        1 ZINC000005195808    0.4000
@<TRIPOS>BOND
1     1     2     1
2     1     32    1
3     1     33    1
4     1     34    1
5     2     3     1
6     2     4     2
7     3     35    1
8     3     36    1
9     3     37    1
10    4     5     1
11    4     38    1
12    5     6     1
13    5     39    1
14    5     40    1
15    6     30    1
16    6     7     2
17    7     8     1
18    7     16    1
19    8     14    ar
20    8     9     ar
21    9     10    ar
22    9     41    1
23    10    11    ar
24    10    42    1
25    11    12    1
26    11    13    ar
27    12    43    1
28    13    14    ar
29    13    44    1
30    14    15    1
31    15    45    1
32    16    17    1
33    17    29    ar
34    17    18    ar
35    18    25    ar
36    18    19    1
37    19    20    2
38    19    46    1
39    20    21    1
40    20    47    1
41    21    22    1
42    21    23    1
43    21    24    1
44    22    48    1
45    22    49    1
46    22    50    1
47    23    51    1
48    23    52    1
49    23    53    1
50    24    25    1
51    25    26    ar
52    26    27    ar
53    26    54    1
54    27    28    1
55    27    29    ar
56    28    55    1
57    29    30    1
58    30    31    2
@<TRIPOS>SUBSTRUCTURE
1   ZINC000005195808 1     RESIDUE    1   A     ZIN   1


@<TRIPOS>MOLECULE
CCCCC/C=C/C(=O)CCC1=CC(=C(C=C1)O)OC
44    44    1     0     0
SMALL
USER_CHARGES
@<TRIPOS>ATOM
1      C1     -0.0187    1.5258    0.0104 C.3      1 ZINC000001531865   -0.1500
2      C2      0.0021   -0.0041    0.0020 C.3      1 ZINC000001531865   -0.1300
3      C3      0.7421   -0.5109    1.2415 C.3      1 ZINC000001531865   -0.1200
4      C4      0.7628   -2.0407    1.2331 C.3      1 ZINC000001531865   -0.1200
5      C5      1.5028   -2.5476    2.4727 C.3      1 ZINC000001531865   -0.1100
6      C6      1.5232   -4.0544    2.4644 C.2      1 ZINC000001531865   -0.0500
7      C7      2.6845   -4.7065    2.5505 C.2      1 ZINC000001531865   -0.2500
8      C8      2.7043   -6.1689    2.5425 C.2      1 ZINC000001531865    0.3800
9      O9      1.6651   -6.7893    2.4575 O.2      1 ZINC000001531865   -0.4600
10     C10     4.0156   -6.9053    2.6398 C.3      1 ZINC000001531865   -0.1600
11     C11     3.7573   -8.4130    2.6098 C.3      1 ZINC000001531865   -0.0700
12     C12     5.0685   -9.1493    2.7070 C.ar     1 ZINC000001531865   -0.0500
13     C13     5.7642   -9.4734    1.5576 C.ar     1 ZINC000001531865   -0.1400
14     C14     6.9677  -10.1494    1.6416 C.ar     1 ZINC000001531865   -0.1000
15     C15     7.4786  -10.5029    2.8797 C.ar     1 ZINC000001531865    0.0700
16     O16     8.6622  -11.1673    2.9640 O.3      1 ZINC000001531865   -0.4900
17     C17     6.7782  -10.1761    4.0373 C.ar     1 ZINC000001531865    0.1100
18     O18     7.2759  -10.5205    5.2551 O.3      1 ZINC000001531865   -0.3100
19     C19     6.5031  -10.1526    6.3995 C.3      1 ZINC000001531865    0.0200
20     C20     5.5758   -9.4943    3.9464 C.ar     1 ZINC000001531865   -0.1900
21     H21     1.0039    1.9031    0.0027 H        1 ZINC000001531865    0.0500
22     H22    -0.5459    1.8868   -0.8726 H        1 ZINC000001531865    0.0500
23     H23    -0.5289    1.8773    0.9072 H        1 ZINC000001531865    0.0500
24     H24    -1.0205   -0.3814    0.0098 H        1 ZINC000001531865    0.0600
25     H25     0.5123   -0.3556   -0.8948 H        1 ZINC000001531865    0.0600
26     H26     1.7647   -0.1336    1.2338 H        1 ZINC000001531865    0.0600
27     H27     0.2319   -0.1594    2.1383 H        1 ZINC000001531865    0.0600
28     H28    -0.2598   -2.4180    1.2409 H        1 ZINC000001531865    0.0700
29     H29     1.2730   -2.3923    0.3363 H        1 ZINC000001531865    0.0700
30     H30     2.5254   -2.1703    2.4649 H        1 ZINC000001531865    0.0700
31     H31     0.9926   -2.1961    3.3695 H        1 ZINC000001531865    0.0800
32     H32     0.5982   -4.6066    2.3887 H        1 ZINC000001531865    0.1200
33     H33     3.6096   -4.1543    2.6262 H        1 ZINC000001531865    0.1300
34     H34     4.6509   -6.6287    1.7983 H        1 ZINC000001531865    0.1000
35     H35     4.5127   -6.6403    3.5729 H        1 ZINC000001531865    0.1000
36     H36     3.1220   -8.6896    3.4512 H        1 ZINC000001531865    0.0800
37     H37     3.2601   -8.6780    1.6766 H        1 ZINC000001531865    0.0800
38     H38     5.3670   -9.1984    0.5917 H        1 ZINC000001531865    0.1300
39     H39     7.5090  -10.4021    0.7418 H        1 ZINC000001531865    0.1400
40     H40     9.4341  -10.5888    3.0311 H        1 ZINC000001531865    0.3900
41     H41     6.3868   -9.0692    6.4263 H        1 ZINC000001531865    0.0600
42     H42     5.5212  -10.6221    6.3410 H        1 ZINC000001531865    0.0600
43     H43     7.0120  -10.4860    7.3039 H        1 ZINC000001531865    0.1000
44     H44     5.0303   -9.2395    4.8431 H        1 ZINC000001531865    0.1300
@<TRIPOS>BOND
1     1     2     1
2     1     21    1
3     1     22    1
4     1     23    1
5     2     3     1
6     2     24    1
7     2     25    1
8     3     4     1
9     3     26    1
10    3     27    1
11    4     5     1
12    4     28    1
13    4     29    1
14    5     6     1
15    5     30    1
16    5     31    1
17    6     7     2
18    6     32    1
19    7     8     1
20    7     33    1
21    8     9     2
22    8     10    1
23    10    11    1
24    10    34    1
25    10    35    1
26    11    12    1
27    11    36    1
28    11    37    1
29    12    20    ar
30    12    13    ar
31    13    14    ar
32    13    38    1
33    14    15    ar
34    14    39    1
35    15    16    1
36    15    17    ar
37    16    40    1
38    17    18    1
39    17    20    ar
40    18    19    1
41    19    41    1
42    19    42    1
43    19    43    1
44    20    44    1
@<TRIPOS>SUBSTRUCTURE
1   ZINC000001531865 1     RESIDUE    1   A     ZIN   1


@<TRIPOS>MOLECULE
CC(=CCC1=C(C=C(C(=C1O)C(=O)O)CCC2=CC=CC=C2)OC)C
48    49    1     0     0
SMALL
USER_CHARGES
@<TRIPOS>ATOM
1      C1     -0.1072    1.1190    0.5613 C.3      1 ZINC000013340605    0.0300
2      O2     -0.0986   -0.3069    0.4682 O.3      1 ZINC000013340605   -0.3100
3      C3     -1.3026   -0.9252    0.3733 C.ar     1 ZINC000013340605    0.1200
4      C4     -2.4711   -0.1687    0.3644 C.ar     1 ZINC000013340605   -0.2100
5      C5     -3.6882   -0.7791    0.2694 C.ar     1 ZINC000013340605   -0.0200
6      C6     -4.9471    0.0492    0.2605 C.3      1 ZINC000013340605   -0.0700
7      C7     -5.4930    0.1626    1.6853 C.3      1 ZINC000013340605   -0.0800
8      C8     -6.7519    0.9910    1.6765 C.ar     1 ZINC000013340605   -0.0700
9      C9     -6.6782    2.3620    1.8373 C.ar     1 ZINC000013340605   -0.1200
10     C10    -7.8329    3.1219    1.8292 C.ar     1 ZINC000013340605   -0.1300
11     C11    -9.0613    2.5108    1.6599 C.ar     1 ZINC000013340605   -0.1300
12     C12    -9.1349    1.1399    1.4982 C.ar     1 ZINC000013340605   -0.1200
13     C13    -7.9798    0.3805    1.5020 C.ar     1 ZINC000013340605   -0.1100
14     C14    -3.7684   -2.1740    0.1796 C.ar     1 ZINC000013340605   -0.1600
15     C15    -5.0772   -2.8327    0.0768 C.2      1 ZINC000013340605    0.5400
16     O16    -5.5528   -3.0805   -1.0233 O.co2    1 ZINC000013340605   -0.6900
17     O17    -5.6921   -3.1337    1.0912 O.co2    1 ZINC000013340605   -0.6800
18     C18    -2.5908   -2.9410    0.1879 C.ar     1 ZINC000013340605    0.1500
19     O19    -2.6566   -4.2927    0.1010 O.3      1 ZINC000013340605   -0.4800
20     C20    -1.3631   -2.3083    0.2799 C.ar     1 ZINC000013340605   -0.1400
21     C21    -0.0942   -3.1213    0.2891 C.3      1 ZINC000013340605   -0.0400
22     C22     0.3922   -3.3094   -1.1248 C.2      1 ZINC000013340605   -0.1400
23     C23     1.5825   -2.8850   -1.4699 C.2      1 ZINC000013340605   -0.1400
24     C24     2.4661   -2.2103   -0.4525 C.3      1 ZINC000013340605   -0.1200
25     C25     2.0683   -3.0715   -2.8842 C.3      1 ZINC000013340605   -0.1100
26     H26     0.9172    1.4847    0.6316 H        1 ZINC000013340605    0.0900
27     H27    -0.5826    1.5382   -0.3254 H        1 ZINC000013340605    0.0500
28     H28    -0.6627    1.4218    1.4489 H        1 ZINC000013340605    0.0500
29     H29    -2.4144    0.9076    0.4334 H        1 ZINC000013340605    0.1200
30     H30    -4.7243    1.0447   -0.1235 H        1 ZINC000013340605    0.0600
31     H31    -5.6915   -0.4278   -0.3769 H        1 ZINC000013340605    0.0800
32     H32    -5.7158   -0.8329    2.0693 H        1 ZINC000013340605    0.1000
33     H33    -4.7486    0.6397    2.3228 H        1 ZINC000013340605    0.0600
34     H34    -5.7185    2.8394    1.9695 H        1 ZINC000013340605    0.1200
35     H35    -7.7755    4.1929    1.9555 H        1 ZINC000013340605    0.1200
36     H36    -9.9635    3.1044    1.6543 H        1 ZINC000013340605    0.1200
37     H37   -10.0946    0.6625    1.3663 H        1 ZINC000013340605    0.1200
38     H38    -8.0373   -0.6905    1.3757 H        1 ZINC000013340605    0.1300
39     H39    -2.6340   -4.6302   -0.8049 H        1 ZINC000013340605    0.3900
40     H40     0.6672   -2.5998    0.8690 H        1 ZINC000013340605    0.0800
41     H41    -0.2898   -4.0949    0.7386 H        1 ZINC000013340605    0.0800
42     H42    -0.2406   -3.7940   -1.8536 H        1 ZINC000013340605    0.1000
43     H43     3.0067   -2.9660    0.1174 H        1 ZINC000013340605    0.0600
44     H44     3.1782   -1.5618   -0.9628 H        1 ZINC000013340605    0.0500
45     H45     1.8526   -1.6151    0.2238 H        1 ZINC000013340605    0.0800
46     H46     1.2983   -3.5743   -3.4694 H        1 ZINC000013340605    0.0600
47     H47     2.2829   -2.0984   -3.3259 H        1 ZINC000013340605    0.0600
48     H48     2.9748   -3.6767   -2.8802 H        1 ZINC000013340605    0.0600
@<TRIPOS>BOND
1     1     2     1
2     1     26    1
3     1     27    1
4     1     28    1
5     2     3     1
6     3     20    ar
7     3     4     ar
8     4     5     ar
9     4     29    1
10    5     6     1
11    5     14    ar
12    6     7     1
13    6     30    1
14    6     31    1
15    7     8     1
16    7     32    1
17    7     33    1
18    8     13    ar
19    8     9     ar
20    9     10    ar
21    9     34    1
22    10    11    ar
23    10    35    1
24    11    12    ar
25    11    36    1
26    12    13    ar
27    12    37    1
28    13    38    1
29    14    15    1
30    14    18    ar
31    15    16    ar
32    15    17    ar
33    18    19    1
34    18    20    ar
35    19    39    1
36    20    21    1
37    21    22    1
38    21    40    1
39    21    41    1
40    22    23    2
41    22    42    1
42    23    24    1
43    23    25    1
44    24    43    1
45    24    44    1
46    24    45    1
47    25    46    1
48    25    47    1
49    25    48    1
@<TRIPOS>SUBSTRUCTURE
1   ZINC000013340605 1     RESIDUE    1   A     ZIN   1


@<TRIPOS>MOLECULE
CC(=CCCC(=CCC1=C(C=C(C(=C1O)C(=O)O)CCC2=CC=CC=C2)OC)C)C
61    62    1     0     0
SMALL
USER_CHARGES
@<TRIPOS>ATOM
1      C1     -0.0438    2.7788    0.7323 C.3      1 ZINC000013358271    0.0300
2      O2     -0.2934    1.3882    0.9471 O.3      1 ZINC000013358271   -0.3100
3      C3     -1.5898    0.9882    0.9492 C.ar     1 ZINC000013358271    0.1200
4      C4     -2.6027    1.9204    0.7418 C.ar     1 ZINC000013358271   -0.2100
5      C5     -3.9107    1.5303    0.7417 C.ar     1 ZINC000013358271   -0.0200
6      C6     -4.9995    2.5475    0.5161 C.3      1 ZINC000013358271   -0.0700
7      C7     -5.5374    3.0266    1.8659 C.3      1 ZINC000013358271   -0.0800
8      C8     -6.6262    4.0438    1.6404 C.ar     1 ZINC000013358271   -0.0700
9      C9     -6.3092    5.3860    1.5454 C.ar     1 ZINC000013358271   -0.1200
10     C10    -7.3079    6.3190    1.3385 C.ar     1 ZINC000013358271   -0.1300
11     C11    -8.6236    5.9099    1.2262 C.ar     1 ZINC000013358271   -0.1300
12     C12    -8.9404    4.5677    1.3204 C.ar     1 ZINC000013358271   -0.1200
13     C13    -7.9412    3.6342    1.5229 C.ar     1 ZINC000013358271   -0.1100
14     C14    -4.2420    0.1861    0.9503 C.ar     1 ZINC000013358271   -0.1600
15     C15    -5.6489   -0.2357    0.9500 C.2      1 ZINC000013358271    0.5400
16     O16    -6.1657   -0.6418   -0.0823 O.co2    1 ZINC000013358271   -0.6900
17     O17    -6.3042   -0.1812    1.9821 O.co2    1 ZINC000013358271   -0.6800
18     C18    -3.2220   -0.7579    1.1596 C.ar     1 ZINC000013358271    0.1500
19     O19    -3.5313   -2.0626    1.3623 O.3      1 ZINC000013358271   -0.4800
20     C20    -1.8996   -0.3490    1.1524 C.ar     1 ZINC000013358271   -0.1400
21     C21    -0.7982   -1.3531    1.3753 C.3      1 ZINC000013358271   -0.0400
22     C22    -0.3650   -1.9260    0.0505 C.2      1 ZINC000013358271   -0.1400
23     C23     0.8719   -1.7774   -0.3544 C.2      1 ZINC000013358271   -0.1400
24     C24     1.8553   -1.0119    0.4929 C.3      1 ZINC000013358271   -0.1200
25     C25     1.3115   -2.3719   -1.6675 C.3      1 ZINC000013358271   -0.0700
26     C26     1.2098   -1.3124   -2.7666 C.3      1 ZINC000013358271   -0.0900
27     C27     1.6494   -1.9069   -4.0797 C.2      1 ZINC000013358271   -0.1700
28     C28     0.8072   -1.9794   -5.0806 C.2      1 ZINC000013358271   -0.1400
29     C29    -0.6008   -1.4671   -4.9191 C.3      1 ZINC000013358271   -0.1200
30     C30     1.2464   -2.5750   -6.3933 C.3      1 ZINC000013358271   -0.1200
31     H31     1.0303    2.9628    0.7546 H        1 ZINC000013358271    0.0900
32     H32    -0.4429    3.0739   -0.2381 H        1 ZINC000013358271    0.0500
33     H33    -0.5284    3.3603    1.5166 H        1 ZINC000013358271    0.0500
34     H34    -2.3522    2.9584    0.5804 H        1 ZINC000013358271    0.1200
35     H35    -4.5953    3.3960   -0.0358 H        1 ZINC000013358271    0.0600
36     H36    -5.8081    2.0933   -0.0567 H        1 ZINC000013358271    0.0800
37     H37    -5.9416    2.1780    2.4179 H        1 ZINC000013358271    0.1000
38     H38    -4.7289    3.4807    2.4388 H        1 ZINC000013358271    0.0600
39     H39    -5.2813    5.7056    1.6331 H        1 ZINC000013358271    0.1200
40     H40    -7.0604    7.3677    1.2649 H        1 ZINC000013358271    0.1200
41     H41    -9.4040    6.6390    1.0653 H        1 ZINC000013358271    0.1200
42     H42    -9.9684    4.2480    1.2330 H        1 ZINC000013358271    0.1200
43     H43    -8.1888    2.5855    1.5965 H        1 ZINC000013358271    0.1300
44     H44    -3.5772   -2.5866    0.5509 H        1 ZINC000013358271    0.3900
45     H45     0.0495   -0.8624    1.8536 H        1 ZINC000013358271    0.0800
46     H46    -1.1626   -2.1557    2.0166 H        1 ZINC000013358271    0.0800
47     H47    -1.0744   -2.4591   -0.5651 H        1 ZINC000013358271    0.1000
48     H48     2.3224   -1.6886    1.2085 H        1 ZINC000013358271    0.0600
49     H49     2.6217   -0.5736   -0.1463 H        1 ZINC000013358271    0.0500
50     H50     1.3331   -0.2197    1.0295 H        1 ZINC000013358271    0.0800
51     H51     2.3438   -2.7119   -1.5850 H        1 ZINC000013358271    0.0600
52     H52     0.6696   -3.2168   -1.9169 H        1 ZINC000013358271    0.0600
53     H53     0.1774   -0.9725   -2.8491 H        1 ZINC000013358271    0.0800
54     H54     1.8517   -0.4675   -2.5173 H        1 ZINC000013358271    0.0700
55     H55     2.6587   -2.2733   -4.1957 H        1 ZINC000013358271    0.1000
56     H56    -0.6188   -0.3918   -5.0969 H        1 ZINC000013358271    0.0700
57     H57    -1.2531   -1.9649   -5.6366 H        1 ZINC000013358271    0.0600
58     H58    -0.9489   -1.6739   -3.9071 H        1 ZINC000013358271    0.0700
59     H59     1.0512   -3.6474   -6.3892 H        1 ZINC000013358271    0.0600
60     H60     0.6925   -2.1080   -7.2077 H        1 ZINC000013358271    0.0600
61     H61     2.3133   -2.4005   -6.5326 H        1 ZINC000013358271    0.0600
@<TRIPOS>BOND
1     1     2     1
2     1     31    1
3     1     32    1
4     1     33    1
5     2     3     1
6     3     20    ar
7     3     4     ar
8     4     5     ar
9     4     34    1
10    5     6     1
11    5     14    ar
12    6     7     1
13    6     35    1
14    6     36    1
15    7     8     1
16    7     37    1
17    7     38    1
18    8     13    ar
19    8     9     ar
20    9     10    ar
21    9     39    1
22    10    11    ar
23    10    40    1
24    11    12    ar
25    11    41    1
26    12    13    ar
27    12    42    1
28    13    43    1
29    14    15    1
30    14    18    ar
31    15    16    ar
32    15    17    ar
33    18    19    1
34    18    20    ar
35    19    44    1
36    20    21    1
37    21    22    1
38    21    45    1
39    21    46    1
40    22    23    2
41    22    47    1
42    23    24    1
43    23    25    1
44    24    48    1
45    24    49    1
46    24    50    1
47    25    26    1
48    25    51    1
49    25    52    1
50    26    27    1
51    26    53    1
52    26    54    1
53    27    28    2
54    27    55    1
55    28    29    1
56    28    30    1
57    29    56    1
58    29    57    1
59    29    58    1
60    30    59    1
61    30    60    1
62    30    61    1
@<TRIPOS>SUBSTRUCTURE
1   ZINC000013358271 1     RESIDUE    1   A     ZIN   1


@<TRIPOS>MOLECULE
CC(=CCCC(=CCC1=C(C=C(C=C1O)C=CC2=CC=CC=C2)O)C)C
  54   55    0    0    0
SMALL
USER_CHARGES
NO_NAME
@<TRIPOS>ATOM
    1 C1        0.0264     1.6703    -0.1752 C.3    1 <0>      -0.1200
    2 C2        0.0746     0.1652    -0.1170 C.2    1 <0>      -0.1300
    3 C3        1.4015    -0.5482    -0.1519 C.3    1 <0>      -0.1200
    4 C4       -1.0372    -0.5231    -0.0361 C.2    1 <0>      -0.1700
    5 C5       -2.3642     0.1903    -0.0012 C.3    1 <0>      -0.0900
    6 C6       -3.2599    -0.3437    -1.1207 C.3    1 <0>      -0.0800
    7 C7       -4.5869     0.3697    -1.0859 C.2    1 <0>      -0.1200
    8 C8       -5.6817    -0.1197    -0.1732 C.3    1 <0>      -0.1200
    9 C9       -4.7887     1.4152    -1.8489 C.2    1 <0>      -0.1600
   10 C10      -6.0711     2.1979    -1.7308 C.3    1 <0>      -0.0500
   11 C11      -5.7523     3.6541    -1.5097 C.ar   1 <0>      -0.1200
   12 C12      -5.6010     4.1406    -0.2189 C.ar   1 <0>       0.1300
   13 O13      -5.7407     3.3033     0.8424 O.3    1 <0>      -0.4900
   14 C14      -5.3076     5.4777    -0.0105 C.ar   1 <0>      -0.1400
   15 C15      -5.1644     6.3372    -1.1021 C.ar   1 <0>      -0.0300
   16 C16      -4.8516     7.7613    -0.8858 C.2    1 <0>      -0.1100
   17 C17      -4.7143     8.5855    -1.9365 C.2    1 <0>      -0.1000
   18 C18      -4.4015    10.0095    -1.7202 C.ar   1 <0>      -0.0600
   19 C19      -4.2415    10.5040    -0.4231 C.ar   1 <0>      -0.1100
   20 C20      -3.9484    11.8376    -0.2284 C.ar   1 <0>      -0.1200
   21 C21      -3.8133    12.6854    -1.3138 C.ar   1 <0>      -0.1200
   22 C22      -3.9704    12.2028    -2.6011 C.ar   1 <0>      -0.1200
   23 C23      -4.2580    10.8704    -2.8114 C.ar   1 <0>      -0.1100
   24 C24      -5.3180     5.8428    -2.3994 C.ar   1 <0>      -0.1500
   25 C25      -5.6053     4.5028    -2.5976 C.ar   1 <0>       0.1300
   26 O26      -5.7550     4.0205    -3.8593 O.3    1 <0>      -0.4900
   27 H27       1.0408     2.0640    -0.2397 H      1 <0>       0.0600
   28 H28      -0.5407     1.9820    -1.0523 H      1 <0>       0.0700
   29 H29      -0.4556     2.0535     0.7242 H      1 <0>       0.0600
   30 H30       1.7706    -0.6790     0.8654 H      1 <0>       0.0700
   31 H31       1.2773    -1.5240    -0.6215 H      1 <0>       0.0600
   32 H32       2.1166     0.0423    -0.7247 H      1 <0>       0.0600
   33 H33      -1.0027    -1.6017     0.0057 H      1 <0>       0.1100
   34 H34      -2.8443     0.0175     0.9620 H      1 <0>       0.0700
   35 H35      -2.2056     1.2596    -0.1415 H      1 <0>       0.0700
   36 H36      -2.7797    -0.1709    -2.0839 H      1 <0>       0.0700
   37 H37      -3.4184    -1.4130    -0.9804 H      1 <0>       0.0700
   38 H38      -5.3647    -1.0429     0.3119 H      1 <0>       0.0600
   39 H39      -5.8883     0.6363     0.5843 H      1 <0>       0.0700
   40 H40      -6.5839    -0.3065    -0.7556 H      1 <0>       0.0700
   41 H41      -4.0361     1.7162    -2.5626 H      1 <0>       0.1000
   42 H42      -6.6496     2.0878    -2.6480 H      1 <0>       0.0900
   43 H43      -6.6506     1.8208    -0.8882 H      1 <0>       0.0900
   44 H44      -4.9177     2.8767     1.1178 H      1 <0>       0.3900
   45 H45      -5.1901     5.8554     0.9944 H      1 <0>       0.1300
   46 H46      -4.7328     8.1417     0.1180 H      1 <0>       0.1300
   47 H47      -4.8331     8.2051    -2.9403 H      1 <0>       0.1200
   48 H48      -4.3473     9.8436     0.4249 H      1 <0>       0.1300
   49 H49      -3.8244    12.2212     0.7735 H      1 <0>       0.1200
   50 H50      -3.5845    13.7289    -1.1552 H      1 <0>       0.1200
   51 H51      -3.8639    12.8704    -3.4434 H      1 <0>       0.1200
   52 H52      -4.3804    10.4951    -3.8167 H      1 <0>       0.1200
   53 H53      -5.2085     6.5036    -3.2466 H      1 <0>       0.1300
   54 H54      -4.9342     3.7006    -4.2581 H      1 <0>       0.3900
@<TRIPOS>BOND
   1    1    2 1
   2    1   27 1
   3    1   28 1
   4    1   29 1
   5    2    3 1
   6    2    4 2
   7    3   30 1
   8    3   31 1
   9    3   32 1
  10    4    5 1
  11    4   33 1
  12    5    6 1
  13    5   34 1
  14    5   35 1
  15    6    7 1
  16    6   36 1
  17    6   37 1
  18    7    8 1
  19    7    9 2
  20    8   38 1
  21    8   39 1
  22    8   40 1
  23    9   10 1
  24    9   41 1
  25   10   11 1
  26   10   42 1
  27   10   43 1
  28   11   25 ar
  29   11   12 ar
  30   12   13 1
  31   12   14 ar
  32   13   44 1
  33   14   15 ar
  34   14   45 1
  35   15   16 1
  36   15   24 ar
  37   16   17 2
  38   16   46 1
  39   17   18 1
  40   17   47 1
  41   18   23 ar
  42   18   19 ar
  43   19   20 ar
  44   19   48 1
  45   20   21 ar
  46   20   49 1
  47   21   22 ar
  48   21   50 1
  49   22   23 ar
  50   22   51 1
  51   23   52 1
  52   24   25 ar
  53   24   53 1
  54   25   26 1
  55   26   54 1


@<TRIPOS>MOLECULE
O=C(N1)SC(CC2=CC=C(OCC(N3C)=NC4=C(C=CC=C4)C3=O)C=C2)C1=O
44    47    1     0     0
SMALL
USER_CHARGES
@<TRIPOS>ATOM
1      C1     -0.0178    1.4608    0.0101 C.3      1 ZINC000001481805    0.0500
2      N2      0.0021   -0.0041    0.0020 N.am     1 ZINC000001481805   -0.5400
3      C3      0.0055   -0.6681   -1.1773 C.2      1 ZINC000001481805    0.5500
4      O4     -0.0072   -0.0721   -2.2386 O.2      1 ZINC000001481805   -0.5100
5      C5      0.0257   -2.1376   -1.1266 C.ar     1 ZINC000001481805   -0.2000
6      C6      0.0313   -2.9149   -2.2826 C.ar     1 ZINC000001481805   -0.0400
7      C7      0.0508   -4.2887   -2.1768 C.ar     1 ZINC000001481805   -0.1400
8      C8      0.0645   -4.9009   -0.9307 C.ar     1 ZINC000001481805   -0.0700
9      C9      0.0593   -4.1506    0.2240 C.ar     1 ZINC000001481805   -0.1100
10     C10     0.0401   -2.7571    0.1430 C.ar     1 ZINC000001481805    0.1500
11     N11     0.0348   -1.9795    1.2546 N.2      1 ZINC000001481805   -0.4900
12     C12     0.0225   -0.6834    1.1784 C.2      1 ZINC000001481805    0.3900
13     C13     0.0174    0.1080    2.4609 C.3      1 ZINC000001481805    0.1100
14     O14     0.0280   -0.7884    3.5738 O.3      1 ZINC000001481805   -0.2800
15     C15     0.0250   -0.2325    4.8139 C.ar     1 ZINC000001481805    0.1200
16     C16     0.0065    1.1473    4.9567 C.ar     1 ZINC000001481805   -0.2100
17     C17     0.0031    1.7100    6.2183 C.ar     1 ZINC000001481805   -0.0500
18     C18     0.0186    0.8992    7.3382 C.ar     1 ZINC000001481805   -0.1100
19     C19     0.0153    1.5157    8.7133 C.3      1 ZINC000001481805   -0.0500
20     C20    -1.4281    1.7044    9.1842 C.3      1 ZINC000001481805   -0.0900
21     H21    -1.9759    0.7636    9.1299 H        1 ZINC000001481805    0.1100
22     S22    -2.2638    2.9952    8.2019 S.3      1 ZINC000001481805   -0.4000
23     C23    -2.5537    4.0534    9.5944 C.2      1 ZINC000001481805    0.5800
24     O24    -3.1098    5.1342    9.5705 O.2      1 ZINC000001481805   -0.5100
25     N25    -2.0515    3.4498   10.6736 N.pl3    1 ZINC000001481805   -0.7200
26     C26    -1.4636    2.2638   10.5896 C.2      1 ZINC000001481805    0.5200
27     O27    -0.9971    1.6867   11.5483 O.2      1 ZINC000001481805   -0.5400
28     C28     0.0366   -0.4763    7.1985 C.ar     1 ZINC000001481805   -0.0800
29     C29     0.0348   -1.0439    5.9391 C.ar     1 ZINC000001481805   -0.1500
30     H30     1.0048    1.8381    0.0023 H        1 ZINC000001481805    0.0800
31     H31    -0.5450    1.8219   -0.8730 H        1 ZINC000001481805    0.1000
32     H32    -0.5280    1.8123    0.9069 H        1 ZINC000001481805    0.0900
33     H33     0.0200   -2.4442   -3.2546 H        1 ZINC000001481805    0.1400
34     H34     0.0552   -4.8944   -3.0710 H        1 ZINC000001481805    0.1300
35     H35     0.0790   -5.9789   -0.8663 H        1 ZINC000001481805    0.1400
36     H36     0.0697   -4.6380    1.1877 H        1 ZINC000001481805    0.1400
37     H37     0.9015    0.7444    2.4986 H        1 ZINC000001481805    0.1000
38     H38    -0.8784    0.7276    2.5020 H        1 ZINC000001481805    0.1000
39     H39    -0.0049    1.7811    4.0822 H        1 ZINC000001481805    0.1200
40     H40    -0.0114    2.7841    6.3300 H        1 ZINC000001481805    0.1300
41     H41     0.5409    0.8594    9.4070 H        1 ZINC000001481805    0.0900
42     H42     0.5157    2.4835    8.6788 H        1 ZINC000001481805    0.0800
43     H43     0.0484   -1.1074    8.0748 H        1 ZINC000001481805    0.1300
44     H44     0.0489   -2.1183    5.8305 H        1 ZINC000001481805    0.1300
@<TRIPOS>BOND
1     1     2     1
2     1     30    1
3     1     31    1
4     1     32    1
5     2     12    1
6     2     3     am
7     3     4     2
8     3     5     1
9     5     10    ar
10    5     6     ar
11    6     7     ar
12    6     33    1
13    7     8     ar
14    7     34    1
15    8     9     ar
16    8     35    1
17    9     10    ar
18    9     36    1
19    10    11    1
20    11    12    2
21    12    13    1
22    13    14    1
23    13    37    1
24    13    38    1
25    14    15    1
26    15    29    ar
27    15    16    ar
28    16    17    ar
29    16    39    1
30    17    18    ar
31    17    40    1
32    18    19    1
33    18    28    ar
34    19    20    1
35    19    41    1
36    19    42    1
37    20    21    1
38    20    26    1
39    20    22    1
40    22    23    1
41    23    24    2
42    23    25    1
43    25    26    1
44    26    27    2
45    28    29    ar
46    28    43    1
47    29    44    1
@<TRIPOS>SUBSTRUCTURE
1   ZINC000001481805 1     RESIDUE    1   A     ZIN   1


@<TRIPOS>MOLECULE
O=C(O)[C@H](CC1=CC=C(C=C1)OCCN(C)C2=NC=CC=C2)NC3=CC=CC=C3C(C4=CC=CC=C4)=O
  65   68    0    0    0
SMALL
USER_CHARGES
NO_NAME
@<TRIPOS>ATOM
    1 C1       -0.3477     3.7370     1.5731 C.3    1 <0>       0.0900
    2 N2        0.1109     2.3485     1.6632 N.pl3  1 <0>      -0.6100
    3 C3        0.1131     1.6603     2.9565 C.3    1 <0>       0.1300
    4 C4       -1.2316     0.9606     3.1641 C.3    1 <0>       0.0400
    5 O5       -1.3878    -0.0707     2.1873 O.3    1 <0>      -0.2900
    6 C6       -2.5372    -0.7944     2.2325 C.ar   1 <0>       0.1200
    7 C7       -3.4976    -0.5138     3.1936 C.ar   1 <0>      -0.2000
    8 C8       -4.6653    -1.2505     3.2372 C.ar   1 <0>      -0.0700
    9 C9       -4.8772    -2.2671     2.3243 C.ar   1 <0>      -0.1100
   10 C10      -6.1518    -3.0696     2.3744 C.3    1 <0>      -0.0700
   11 C11      -7.2092    -2.4030     1.4920 C.3    1 <0>       0.0800
   12 H12      -6.8142    -2.2771     0.4839 H      1 <0>       0.0800
   13 N13      -7.5541    -1.0925     2.0486 N.pl3  1 <0>      -0.6900
   14 C14      -8.0582    -0.0981     1.2216 C.ar   1 <0>       0.2800
   15 C15      -8.3466    -0.3756    -0.1086 C.ar   1 <0>      -0.2000
   16 C16      -8.8477     0.6147    -0.9287 C.ar   1 <0>      -0.0500
   17 C17      -9.0674     1.8912    -0.4351 C.ar   1 <0>      -0.2000
   18 C18      -8.7883     2.1864     0.8810 C.ar   1 <0>      -0.0400
   19 C19      -8.2852     1.1933     1.7269 C.ar   1 <0>      -0.2500
   20 C20      -7.9844     1.5018     3.1356 C.2    1 <0>       0.4600
   21 O21      -6.9959     2.1512     3.4182 O.2    1 <0>      -0.4500
   22 C22      -8.8841     1.0218     4.2056 C.ar   1 <0>      -0.1700
   23 C23     -10.0751     0.3693     3.8803 C.ar   1 <0>      -0.0400
   24 C24     -10.9099    -0.0764     4.8839 C.ar   1 <0>      -0.1300
   25 C25     -10.5694     0.1217     6.2104 C.ar   1 <0>      -0.0900
   26 C26      -9.3906     0.7675     6.5398 C.ar   1 <0>      -0.1400
   27 C27      -8.5441     1.2136     5.5464 C.ar   1 <0>      -0.0700
   28 C28      -8.4418    -3.2687     1.4441 C.2    1 <0>       0.4900
   29 O29      -9.3270    -3.1151     2.2684 O.co2  1 <0>      -0.6800
   30 O30      -8.5539    -4.1225     0.5811 O.co2  1 <0>      -0.7000
   31 C31      -3.9219    -2.5484     1.3652 C.ar   1 <0>      -0.0800
   32 C32      -2.7547    -1.8111     1.3141 C.ar   1 <0>      -0.1500
   33 C33       0.5439     1.6841     0.5216 C.ar   1 <0>       0.4100
   34 C34       0.6437     2.3747    -0.6817 C.ar   1 <0>      -0.2400
   35 C35       1.0765     1.7013    -1.8100 C.ar   1 <0>      -0.0400
   36 C36       1.3959     0.3550    -1.6964 C.ar   1 <0>      -0.2400
   37 C37       1.2735    -0.2680    -0.4703 C.ar   1 <0>       0.1500
   38 N38       0.8629     0.4007     0.5904 N.ar   1 <0>      -0.5200
   39 H39       0.4971     4.4091     1.7236 H      1 <0>       0.0500
   40 H40      -0.7814     3.9132     0.5888 H      1 <0>       0.0700
   41 H41      -1.1000     3.9216     2.3400 H      1 <0>       0.0700
   42 H42       0.9138     0.9209     2.9732 H      1 <0>       0.0900
   43 H43       0.2720     2.3860     3.7540 H      1 <0>       0.0900
   44 H44      -1.2635     0.5235     4.1622 H      1 <0>       0.0600
   45 H45      -2.0386     1.6857     3.0591 H      1 <0>       0.0600
   46 H46      -3.3322     0.2797     3.9074 H      1 <0>       0.1200
   47 H47      -5.4133    -1.0325     3.9852 H      1 <0>       0.1100
   48 H48      -5.9600    -4.0794     2.0117 H      1 <0>       0.0900
   49 H49      -6.5124    -3.1150     3.4021 H      1 <0>       0.0700
   50 H50      -7.4302    -0.9196     2.9950 H      1 <0>       0.3900
   51 H51      -8.1781    -1.3674    -0.5015 H      1 <0>       0.1300
   52 H52      -9.0699     0.3937    -1.9623 H      1 <0>       0.1200
   53 H53      -9.4592     2.6587    -1.0861 H      1 <0>       0.1200
   54 H54      -8.9612     3.1829     1.2600 H      1 <0>       0.1100
   55 H55     -10.3422     0.2144     2.8454 H      1 <0>       0.1300
   56 H56     -11.8315    -0.5809     4.6338 H      1 <0>       0.1300
   57 H57     -11.2267    -0.2290     6.9923 H      1 <0>       0.1200
   58 H58      -9.1309     0.9188     7.5772 H      1 <0>       0.1200
   59 H59      -7.6243     1.7172     5.8048 H      1 <0>       0.1300
   60 H60      -4.0899    -3.3428     0.6530 H      1 <0>       0.1300
   61 H61      -2.0088    -2.0312     0.5648 H      1 <0>       0.1200
   62 H62       0.3866     3.4223    -0.7345 H      1 <0>       0.1300
   63 H63       1.1635     2.2113    -2.7580 H      1 <0>       0.1300
   64 H64       1.7364    -0.1995    -2.5583 H      1 <0>       0.1300
   65 H65       1.5209    -1.3151    -0.3774 H      1 <0>       0.1500
@<TRIPOS>BOND
   1    1    2 1
   2    1   39 1
   3    1   40 1
   4    1   41 1
   5    2    3 1
   6    2   33 1
   7    3    4 1
   8    3   42 1
   9    3   43 1
  10    4    5 1
  11    4   44 1
  12    4   45 1
  13    5    6 1
  14    6   32 ar
  15    6    7 ar
  16    7    8 ar
  17    7   46 1
  18    8    9 ar
  19    8   47 1
  20    9   10 1
  21    9   31 ar
  22   10   11 1
  23   10   48 1
  24   10   49 1
  25   11   12 1
  26   11   13 1
  27   11   28 1
  28   13   14 1
  29   13   50 1
  30   14   19 ar
  31   14   15 ar
  32   15   16 ar
  33   15   51 1
  34   16   17 ar
  35   16   52 1
  36   17   18 ar
  37   17   53 1
  38   18   19 ar
  39   18   54 1
  40   19   20 1
  41   20   21 2
  42   20   22 1
  43   22   27 ar
  44   22   23 ar
  45   23   24 ar
  46   23   55 1
  47   24   25 ar
  48   24   56 1
  49   25   26 ar
  50   25   57 1
  51   26   27 ar
  52   26   58 1
  53   27   59 1
  54   28   29 ar
  55   28   30 ar
  56   31   32 ar
  57   31   60 1
  58   32   61 1
  59   33   38 ar
  60   33   34 ar
  61   34   35 ar
  62   34   62 1
  63   35   36 ar
  64   35   63 1
  65   36   37 ar
  66   36   64 1
  67   37   38 ar
  68   37   65 1


@<TRIPOS>MOLECULE
O=C1C(C2=CC=C(O)C=C2)=COC3=CC(O)=CC=C13
28    30    1     0     0
SMALL
USER_CHARGES
@<TRIPOS>ATOM
1      O1      0.0021   -0.0041    0.0020 O.2      1 ZINC000018847034   -0.5000
2      C2     -0.0145    1.2148    0.0087 C.2      1 ZINC000018847034    0.4400
3      C3     -1.2747    1.9819    0.0312 C.ar     1 ZINC000018847034   -0.3500
4      C4     -2.5028    1.3693   -0.2144 C.ar     1 ZINC000018847034    0.0000
5      C5     -3.6475    2.1148   -0.1926 C.ar     1 ZINC000018847034   -0.2600
6      C6     -3.5902    3.4813    0.0721 C.ar     1 ZINC000018847034    0.3100
7      O7     -4.7345    4.2114    0.0866 O.3      1 ZINC000018847034   -0.7000
8      C8     -2.3781    4.1024    0.3211 C.ar     1 ZINC000018847034   -0.2900
9      C9     -1.2045    3.3591    0.3074 C.ar     1 ZINC000018847034    0.1700
10     O10    -0.0207    3.9467    0.5636 O.3      1 ZINC000018847034   -0.2300
11     C11     1.1309    3.3433    0.2692 C.2      1 ZINC000018847034    0.1300
12     C12     1.2247    2.0160    0.0012 C.2      1 ZINC000018847034   -0.2700
13     C13     2.5347    1.3894   -0.3013 C.ar     1 ZINC000018847034   -0.0100
14     C14     2.7767    0.8517   -1.5643 C.ar     1 ZINC000018847034   -0.0800
15     C15     3.9958    0.2696   -1.8424 C.ar     1 ZINC000018847034   -0.1400
16     C16     4.9813    0.2190   -0.8662 C.ar     1 ZINC000018847034    0.0900
17     O17     6.1816   -0.3552   -1.1433 O.3      1 ZINC000018847034   -0.5000
18     C18     4.7436    0.7540    0.3924 C.ar     1 ZINC000018847034   -0.1400
19     C19     3.5283    1.3421    0.6751 C.ar     1 ZINC000018847034   -0.1000
20     H20    -2.5490    0.3103   -0.4212 H        1 ZINC000018847034    0.1100
21     H21    -4.6005    1.6431   -0.3816 H        1 ZINC000018847034    0.1100
22     H22    -2.3449    5.1625    0.5249 H        1 ZINC000018847034    0.1200
23     H23     2.0321    3.9380    0.2471 H        1 ZINC000018847034    0.1800
24     H24     2.0102    0.8904   -2.3242 H        1 ZINC000018847034    0.1300
25     H25     4.1838   -0.1475   -2.8208 H        1 ZINC000018847034    0.1300
26     H26     6.8394    0.2594   -1.4964 H        1 ZINC000018847034    0.3900
27     H27     5.5123    0.7131    1.1499 H        1 ZINC000018847034    0.1300
28     H28     3.3441    1.7585    1.6544 H        1 ZINC000018847034    0.1300
@<TRIPOS>BOND
1     1     2     2
2     2     12    1
3     2     3     1
4     3     9     ar
5     3     4     ar
6     4     5     ar
7     4     20    1
8     5     6     ar
9     5     21    1
10    6     7     1
11    6     8     ar
12    8     9     ar
13    8     22    1
14    9     10    1
15    10    11    1
16    11    12    2
17    11    23    1
18    12    13    1
19    13    19    ar
20    13    14    ar
21    14    15    ar
22    14    24    1
23    15    16    ar
24    15    25    1
25    16    17    1
26    16    18    ar
27    17    26    1
28    18    19    ar
29    18    27    1
30    19    28    1
@<TRIPOS>SUBSTRUCTURE
1   ZINC000018847034 1     RESIDUE    1   A     ZIN   1


@<TRIPOS>MOLECULE
O=C(O)CCC1=CN(S(=O)(C2=CC=C(OC)C=C2)=O)C3=C1C=C(OC)C=C3
45    47    1     0     0
SMALL
USER_CHARGES
@<TRIPOS>ATOM
1      C1      3.6524    4.9009    6.1890 C.3      1 ZINC000039202807    0.0200
2      O2      4.4582    4.4994    5.0792 O.3      1 ZINC000039202807   -0.3100
3      C3      3.8155    4.2521    3.9076 C.ar     1 ZINC000039202807    0.1900
4      C4      4.5362    3.8583    2.7895 C.ar     1 ZINC000039202807   -0.1700
5      C5      3.8805    3.6071    1.5998 C.ar     1 ZINC000039202807    0.0200
6      C6      2.5071    3.7478    1.5229 C.ar     1 ZINC000039202807   -0.7100
7      S7      1.6738    3.4266    0.0040 S.o2     1 ZINC000039202807    2.6800
8      O8      2.6376    3.5969   -1.0263 O.2      1 ZINC000039202807   -0.9300
9      O9      0.4535    4.1529    0.0545 O.2      1 ZINC000039202807   -0.9300
10     N10     1.2633    1.8223   -0.0002 N.am     1 ZINC000039202807   -0.8300
11     C11    -0.0161    1.3382    0.0094 C.2      1 ZINC000039202807    0.0300
12     C12     0.0021   -0.0041    0.0020 C.2      1 ZINC000039202807   -0.1000
13     C13    -1.1972   -0.9166    0.0086 C.3      1 ZINC000039202807   -0.0300
14     C14    -1.5136   -1.3327    1.4465 C.3      1 ZINC000039202807   -0.1800
15     C15    -2.7129   -2.2452    1.4531 C.2      1 ZINC000039202807    0.4900
16     O16    -3.2635   -2.5358    0.4048 O.co2    1 ZINC000039202807   -0.7000
17     O17    -3.1325   -2.6929    2.5066 O.co2    1 ZINC000039202807   -0.7100
18     C18     1.4085   -0.4139   -0.0136 C.ar     1 ZINC000039202807   -0.0400
19     C19     2.0575   -1.6501   -0.0264 C.ar     1 ZINC000039202807   -0.1000
20     C20     3.4375   -1.6960   -0.0399 C.ar     1 ZINC000039202807    0.1100
21     O21     4.0751   -2.8971   -0.0524 O.3      1 ZINC000039202807   -0.3100
22     C22     5.5038   -2.8730   -0.0660 C.3      1 ZINC000039202807    0.0300
23     C23     4.1788   -0.5175   -0.0411 C.ar     1 ZINC000039202807   -0.1800
24     C24     3.5491    0.7073   -0.0290 C.ar     1 ZINC000039202807   -0.0900
25     C25     2.1603    0.7749   -0.0144 C.ar     1 ZINC000039202807    0.0700
26     C26     1.7873    4.1456    2.6343 C.ar     1 ZINC000039202807    0.0300
27     C27     2.4376    4.3925    3.8279 C.ar     1 ZINC000039202807   -0.2300
28     H28     3.1280    5.8240    5.9421 H        1 ZINC000039202807    0.0600
29     H29     2.9264    4.1192    6.4125 H        1 ZINC000039202807    0.0600
30     H30     4.2883    5.0657    7.0589 H        1 ZINC000039202807    0.1100
31     H31     5.6089    3.7486    2.8489 H        1 ZINC000039202807    0.1400
32     H32     4.4411    3.3009    0.7289 H        1 ZINC000039202807    0.1500
33     H33    -0.9088    1.9460    0.0171 H        1 ZINC000039202807    0.1900
34     H34    -2.0543   -0.3932   -0.4152 H        1 ZINC000039202807    0.0800
35     H35    -0.9821   -1.8036   -0.5874 H        1 ZINC000039202807    0.0800
36     H36    -0.6565   -1.8561    1.8702 H        1 ZINC000039202807    0.0600
37     H37    -1.7287   -0.4457    2.0424 H        1 ZINC000039202807    0.0600
38     H38     1.4836   -2.5650   -0.0255 H        1 ZINC000039202807    0.1400
39     H39     5.8843   -3.8944   -0.0751 H        1 ZINC000039202807    0.1000
40     H40     5.8499   -2.3484   -0.9565 H        1 ZINC000039202807    0.0500
41     H41     5.8670   -2.3579    0.8234 H        1 ZINC000039202807    0.0500
42     H42     5.2577   -0.5642   -0.0520 H        1 ZINC000039202807    0.1400
43     H43     4.1340    1.6153   -0.0308 H        1 ZINC000039202807    0.1300
44     H44     0.7152    4.2590    2.5705 H        1 ZINC000039202807    0.1500
45     H45     1.8744    4.6989    4.6969 H        1 ZINC000039202807    0.1400
@<TRIPOS>BOND
1     1     2     1
2     1     28    1
3     1     29    1
4     1     30    1
5     2     3     1
6     3     27    ar
7     3     4     ar
8     4     5     ar
9     4     31    1
10    5     6     ar
11    5     32    1
12    6     7     1
13    6     26    ar
14    7     8     2
15    7     9     2
16    7     10    am
17    10    25    1
18    10    11    1
19    11    12    2
20    11    33    1
21    12    13    1
22    12    18    1
23    13    14    1
24    13    34    1
25    13    35    1
26    14    15    1
27    14    36    1
28    14    37    1
29    15    16    ar
30    15    17    ar
31    18    25    ar
32    18    19    ar
33    19    20    ar
34    19    38    1
35    20    21    1
36    20    23    ar
37    21    22    1
38    22    39    1
39    22    40    1
40    22    41    1
41    23    24    ar
42    23    42    1
43    24    25    ar
44    24    43    1
45    26    27    ar
46    26    44    1
47    27    45    1
@<TRIPOS>SUBSTRUCTURE
1   ZINC000039202807 1     RESIDUE    1   A     ZIN   1


@<TRIPOS>MOLECULE
O=C(OCCNC(C)=O)[C@@H](C1=CC=C(Cl)C=C1)OC2=CC=CC(C(F)(F)F)=C2
45    46    1     0     0
SMALL
USER_CHARGES
@<TRIPOS>ATOM
1      C1      0.1771    0.9257    0.3753 C.3      1 ZINC000002012859   -0.1800
2      C2      0.1693   -0.5555    0.0980 C.2      1 ZINC000002012859    0.5100
3      O3      1.2145   -1.1454   -0.0763 O.2      1 ZINC000002012859   -0.5400
4      N4     -0.9993   -1.2248    0.0438 N.am     1 ZINC000002012859   -0.7300
5      C5     -1.0069   -2.6648   -0.2257 C.3      1 ZINC000002012859    0.1200
6      C6     -2.4495   -3.1746   -0.2334 C.3      1 ZINC000002012859    0.0600
7      O7     -3.1697   -2.5726   -1.3412 O.3      1 ZINC000002012859   -0.3500
8      C8     -4.4583   -2.9180   -1.4898 C.2      1 ZINC000002012859    0.4700
9      O9     -4.9675   -3.6974   -0.7198 O.2      1 ZINC000002012859   -0.4700
10     C10    -5.2698   -2.3335   -2.6172 C.3      1 ZINC000002012859    0.1400
11     H11    -5.2241   -1.2454   -2.5716 H        1 ZINC000002012859    0.1200
12     O12    -6.6287   -2.7587   -2.4962 O.3      1 ZINC000002012859   -0.2800
13     C13    -7.5752   -1.9710   -3.0711 C.ar     1 ZINC000002012859    0.1300
14     C14    -8.9203   -2.2601   -2.8948 C.ar     1 ZINC000002012859   -0.1100
15     C15    -9.8807   -1.4574   -3.4799 C.ar     1 ZINC000002012859   -0.0800
16     C16    -9.5019   -0.3671   -4.2409 C.ar     1 ZINC000002012859   -0.1000
17     C17    -8.1615   -0.0771   -4.4185 C.ar     1 ZINC000002012859   -0.1400
18     C18    -7.7521    1.1119   -5.2491 C.3      1 ZINC000002012859    0.5100
19     F19    -8.8947    1.7606   -5.7297 F        1 ZINC000002012859   -0.1700
20     F20    -7.0097    1.9979   -4.4610 F        1 ZINC000002012859   -0.1800
21     F21    -6.9720    0.6811   -6.3275 F        1 ZINC000002012859   -0.1700
22     C22    -7.1977   -0.8728   -3.8306 C.ar     1 ZINC000002012859   -0.1600
23     C23    -4.7113   -2.8049   -3.9351 C.ar     1 ZINC000002012859   -0.1300
24     C24    -5.1115   -4.0195   -4.4602 C.ar     1 ZINC000002012859   -0.0700
25     C25    -4.5997   -4.4524   -5.6689 C.ar     1 ZINC000002012859   -0.1100
26     C26    -3.6867   -3.6699   -6.3533 C.ar     1 ZINC000002012859   -0.0200
27     Cl27   -3.0438   -4.2127   -7.8718 Cl       1 ZINC000002012859   -0.0600
28     C28    -3.2866   -2.4545   -5.8272 C.ar     1 ZINC000002012859   -0.1100
29     C29    -3.8034   -2.0200   -4.6212 C.ar     1 ZINC000002012859   -0.0800
30     H30     1.2048    1.2889    0.3807 H        1 ZINC000002012859    0.0900
31     H31    -0.3872    1.4435   -0.4003 H        1 ZINC000002012859    0.0900
32     H32    -0.2807    1.1161    1.3460 H        1 ZINC000002012859    0.0900
33     H33    -1.8353   -0.7530    0.1832 H        1 ZINC000002012859    0.4000
34     H34    -0.5492   -2.8551   -1.1965 H        1 ZINC000002012859    0.0800
35     H35    -0.4427   -3.1826    0.5499 H        1 ZINC000002012859    0.1000
36     H36    -2.4511   -4.2588   -0.3453 H        1 ZINC000002012859    0.0900
37     H37    -2.9349   -2.9054    0.7047 H        1 ZINC000002012859    0.0800
38     H38    -9.2167   -3.1121   -2.3010 H        1 ZINC000002012859    0.1500
39     H39   -10.9281   -1.6820   -3.3430 H        1 ZINC000002012859    0.1500
40     H40   -10.2541    0.2589   -4.6977 H        1 ZINC000002012859    0.1400
41     H41    -6.1510   -0.6457   -3.9693 H        1 ZINC000002012859    0.1400
42     H42    -5.8239   -4.6303   -3.9258 H        1 ZINC000002012859    0.1400
43     H43    -4.9121   -5.4014   -6.0789 H        1 ZINC000002012859    0.1400
44     H44    -2.5737   -1.8434   -6.3608 H        1 ZINC000002012859    0.1400
45     H45    -3.4914   -1.0711   -4.2106 H        1 ZINC000002012859    0.1400
@<TRIPOS>BOND
1     1     2     1
2     1     30    1
3     1     31    1
4     1     32    1
5     2     3     2
6     2     4     am
7     4     5     1
8     4     33    1
9     5     6     1
10    5     34    1
11    5     35    1
12    6     7     1
13    6     36    1
14    6     37    1
15    7     8     1
16    8     9     2
17    8     10    1
18    10    11    1
19    10    12    1
20    10    23    1
21    12    13    1
22    13    22    ar
23    13    14    ar
24    14    15    ar
25    14    38    1
26    15    16    ar
27    15    39    1
28    16    17    ar
29    16    40    1
30    17    18    1
31    17    22    ar
32    18    19    1
33    18    20    1
34    18    21    1
35    22    41    1
36    23    29    ar
37    23    24    ar
38    24    25    ar
39    24    42    1
40    25    26    ar
41    25    43    1
42    26    27    1
43    26    28    ar
44    28    29    ar
45    28    44    1
46    29    45    1
@<TRIPOS>SUBSTRUCTURE
1   ZINC000002012859 1     RESIDUE    1   A     ZIN   1


@<TRIPOS>MOLECULE
CN(CCOC1=CC=C(C=C1)CC2C(=O)NC(=O)S2)C3=CC(=NC=N3)OC4=CC=C(C=C4)OC
57    60    1     0     0
SMALL
USER_CHARGES
@<TRIPOS>ATOM
1      C1      0.7583    0.1294    1.1947 C.3      1 ZINC000033972992    0.0300
2      O2     -0.0090   -0.0062   -0.0031 O.3      1 ZINC000033972992   -0.3200
3      C3      0.5979   -0.6089   -1.0601 C.ar     1 ZINC000033972992    0.1300
4      C4      1.9027   -1.0648   -0.9431 C.ar     1 ZINC000033972992   -0.2000
5      C5      2.5192   -1.6771   -2.0167 C.ar     1 ZINC000033972992   -0.0700
6      C6      1.8335   -1.8360   -3.2121 C.ar     1 ZINC000033972992    0.0600
7      O7      2.4403   -2.4392   -4.2690 O.3      1 ZINC000033972992   -0.2400
8      C8      2.5570   -3.7894   -4.2501 C.ar     1 ZINC000033972992    0.3800
9      C9      3.2607   -4.4495   -5.2493 C.ar     1 ZINC000033972992   -0.3100
10     C10     3.3520   -5.8378   -5.1852 C.ar     1 ZINC000033972992    0.4600
11     N11     4.0434   -6.5429   -6.1578 N.pl3    1 ZINC000033972992   -0.5900
12     C12     4.7768   -5.8233   -7.2021 C.3      1 ZINC000033972992    0.0900
13     C13     4.0409   -8.0078   -6.1415 C.3      1 ZINC000033972992    0.1300
14     C14     2.8619   -8.5250   -6.9682 C.3      1 ZINC000033972992    0.0400
15     O15     3.0453   -8.1625   -8.3382 O.3      1 ZINC000033972992   -0.3200
16     C16     2.0798   -8.5487   -9.2132 C.ar     1 ZINC000033972992    0.1200
17     C17     0.9757   -9.2570   -8.7615 C.ar     1 ZINC000033972992   -0.2100
18     C18    -0.0045   -9.6480   -9.6529 C.ar     1 ZINC000033972992   -0.0800
19     C19     0.1142   -9.3345  -10.9943 C.ar     1 ZINC000033972992   -0.1100
20     C20    -0.9564   -9.7628  -11.9645 C.3      1 ZINC000033972992   -0.0400
21     C21    -2.0207   -8.6683  -12.0653 C.3      1 ZINC000033972992   -0.0900
22     H22    -2.4068   -8.4159  -11.0778 H        1 ZINC000033972992    0.1100
23     S23    -1.3474   -7.1877  -12.8925 S.3      1 ZINC000033972992   -0.3900
24     C24    -2.4912   -7.2608  -14.2450 C.2      1 ZINC000033972992    0.5800
25     O25    -2.5438   -6.4888  -15.1826 O.2      1 ZINC000033972992   -0.5100
26     N26    -3.2844   -8.3161  -14.0483 N.pl3    1 ZINC000033972992   -0.7200
27     C27    -3.1430   -9.0965  -12.9853 C.2      1 ZINC000033972992    0.5200
28     O28    -3.8447  -10.0626  -12.7752 O.2      1 ZINC000033972992   -0.5400
29     C29     1.2134   -8.6283  -11.4469 C.ar     1 ZINC000033972992   -0.0600
30     C30     2.1938   -8.2304  -10.5587 C.ar     1 ZINC000033972992   -0.1500
31     N31     2.7656   -6.4774   -4.1756 N.ar     1 ZINC000033972992   -0.5900
32     C32     2.1070   -5.8139   -3.2472 C.ar     1 ZINC000033972992    0.3700
33     N33     2.0038   -4.5008   -3.2711 N.ar     1 ZINC000033972992   -0.6000
34     C34     0.5287   -1.3801   -3.3291 C.ar     1 ZINC000033972992   -0.0700
35     C35    -0.0897   -0.7729   -2.2536 C.ar     1 ZINC000033972992   -0.1400
36     H36     1.0539   -0.8576    1.5505 H        1 ZINC000033972992    0.0600
37     H37     1.6489    0.7237    0.9904 H        1 ZINC000033972992    0.0600
38     H38     0.1574    0.6254    1.9569 H        1 ZINC000033972992    0.1000
39     H39     2.4366   -0.9408   -0.0126 H        1 ZINC000033972992    0.1300
40     H40     3.5352   -2.0318   -1.9257 H        1 ZINC000033972992    0.1300
41     H41     3.7247   -3.9005   -6.0553 H        1 ZINC000033972992    0.1500
42     H42     5.7980   -5.6396   -6.8681 H        1 ZINC000033972992    0.0600
43     H43     4.7944   -6.4225   -8.1124 H        1 ZINC000033972992    0.0900
44     H44     4.2836   -4.8722   -7.4027 H        1 ZINC000033972992    0.0700
45     H45     4.9735   -8.3775   -6.5678 H        1 ZINC000033972992    0.0900
46     H46     3.9464   -8.3596   -5.1142 H        1 ZINC000033972992    0.1100
47     H47     2.8072   -9.6104   -6.8837 H        1 ZINC000033972992    0.0700
48     H48     1.9366   -8.0846   -6.5966 H        1 ZINC000033972992    0.0600
49     H49     0.8829   -9.5027   -7.7139 H        1 ZINC000033972992    0.1200
50     H50    -0.8642  -10.1994   -9.3017 H        1 ZINC000033972992    0.1200
51     H51    -0.5120   -9.9289  -12.9459 H        1 ZINC000033972992    0.0800
52     H52    -1.4169  -10.6861  -11.6131 H        1 ZINC000033972992    0.0900
53     H53     1.3037   -8.3843  -12.4951 H        1 ZINC000033972992    0.1300
54     H54     3.0522   -7.6788  -10.9127 H        1 ZINC000033972992    0.1300
55     H55     1.6420   -6.3619   -2.4411 H        1 ZINC000033972992    0.2000
56     H56    -0.0051   -1.5034   -4.2598 H        1 ZINC000033972992    0.1400
57     H57    -1.1056   -0.4179   -2.3446 H        1 ZINC000033972992    0.1400
@<TRIPOS>BOND
1     1     2     1
2     1     36    1
3     1     37    1
4     1     38    1
5     2     3     1
6     3     35    ar
7     3     4     ar
8     4     5     ar
9     4     39    1
10    5     6     ar
11    5     40    1
12    6     7     1
13    6     34    ar
14    7     8     1
15    8     33    ar
16    8     9     ar
17    9     10    ar
18    9     41    1
19    10    11    1
20    10    31    ar
21    11    12    1
22    11    13    1
23    12    42    1
24    12    43    1
25    12    44    1
26    13    14    1
27    13    45    1
28    13    46    1
29    14    15    1
30    14    47    1
31    14    48    1
32    15    16    1
33    16    30    ar
34    16    17    ar
35    17    18    ar
36    17    49    1
37    18    19    ar
38    18    50    1
39    19    20    1
40    19    29    ar
41    20    21    1
42    20    51    1
43    20    52    1
44    21    22    1
45    21    27    1
46    21    23    1
47    23    24    1
48    24    25    2
49    24    26    1
50    26    27    1
51    27    28    2
52    29    30    ar
53    29    53    1
54    30    54    1
55    31    32    ar
56    32    33    ar
57    32    55    1
58    34    35    ar
59    34    56    1
60    35    57    1
@<TRIPOS>SUBSTRUCTURE
1   ZINC000033972992 1     RESIDUE    1   A     ZIN   1


@<TRIPOS>MOLECULE
CC1=C(N=C(O1)C2=CC=CC=C2)CCOC3=CC=C(C=C3)CN(CC(=O)O)C(=O)OC4=CC=C(C=C4)OC
65    68    1     0     0
SMALL
USER_CHARGES
@<TRIPOS>ATOM
1      C1      0.4501    0.5895    1.1417 C.3      1 ZINC000049650290    0.0300
2      O2     -0.0021    0.0014   -0.0796 O.3      1 ZINC000049650290   -0.3200
3      C3     -1.2041   -0.6334   -0.0511 C.ar     1 ZINC000049650290    0.1200
4      C4     -1.9344   -0.6833    1.1271 C.ar     1 ZINC000049650290   -0.2000
5      C5     -3.1554   -1.3282    1.1561 C.ar     1 ZINC000049650290   -0.0800
6      C6     -3.6511   -1.9264    0.0071 C.ar     1 ZINC000049650290    0.0800
7      O7     -4.8532   -2.5618    0.0357 O.3      1 ZINC000049650290   -0.3000
8      C8     -4.8379   -3.9042   -0.0701 C.2      1 ZINC000049650290    0.6600
9      O9     -3.7794   -4.5011   -0.0758 O.2      1 ZINC000049650290   -0.5800
10     N10    -5.9964   -4.5856   -0.1695 N.am     1 ZINC000049650290   -0.5500
11     C11    -7.2724   -3.8660   -0.1626 C.3      1 ZINC000049650290    0.0400
12     C12    -7.6544   -3.5071   -1.5755 C.2      1 ZINC000049650290    0.4800
13     O13    -6.9281   -3.8231   -2.5024 O.co2    1 ZINC000049650290   -0.6800
14     O14    -8.6898   -2.9007   -1.7917 O.co2    1 ZINC000049650290   -0.7000
15     C15    -5.9796   -6.0460   -0.2846 C.3      1 ZINC000049650290    0.1800
16     C16    -6.0294   -6.6589    1.0913 C.ar     1 ZINC000049650290   -0.1400
17     C17    -4.8553   -6.9244    1.7714 C.ar     1 ZINC000049650290   -0.0500
18     C18    -4.8983   -7.4862    3.0328 C.ar     1 ZINC000049650290   -0.1600
19     C19    -6.1209   -7.7836    3.6171 C.ar     1 ZINC000049650290    0.1300
20     O20    -6.1658   -8.3359    4.8580 O.3      1 ZINC000049650290   -0.3200
21     C21    -7.4593   -8.6155    5.3972 C.3      1 ZINC000049650290    0.0700
22     C22    -7.3091   -9.2294    6.7906 C.3      1 ZINC000049650290   -0.0300
23     C23    -8.6732   -9.5243    7.3592 C.2      1 ZINC000049650290   -0.0100
24     C24    -9.4236   -8.6839    8.0948 C.2      1 ZINC000049650290   -0.0300
25     C25    -9.0557   -7.2800    8.5006 C.3      1 ZINC000049650290   -0.0700
26     O26   -10.5655   -9.3310    8.4011 O.3      1 ZINC000049650290   -0.1900
27     C27   -10.5010  -10.5560    7.8513 C.2      1 ZINC000049650290    0.2300
28     C28   -11.5454  -11.5984    7.9407 C.ar     1 ZINC000049650290   -0.0200
29     C29   -11.3537  -12.8371    7.3270 C.ar     1 ZINC000049650290   -0.0700
30     C30   -12.3322  -13.8057    7.4147 C.ar     1 ZINC000049650290   -0.1200
31     C31   -13.5014  -13.5513    8.1091 C.ar     1 ZINC000049650290   -0.1000
32     C32   -13.6978  -12.3254    8.7198 C.ar     1 ZINC000049650290   -0.1200
33     C33   -12.7250  -11.3500    8.6442 C.ar     1 ZINC000049650290   -0.0900
34     N34    -9.3577  -10.6693    7.2172 N.2      1 ZINC000049650290   -0.4600
35     C35    -7.2975   -7.5159    2.9327 C.ar     1 ZINC000049650290   -0.2100
36     C36    -7.2493   -6.9496    1.6736 C.ar     1 ZINC000049650290   -0.0600
37     C37    -2.9212   -1.8761   -1.1713 C.ar     1 ZINC000049650290   -0.0800
38     C38    -1.7028   -1.2263   -1.2017 C.ar     1 ZINC000049650290   -0.1300
39     H39     1.4190    1.0621    0.9806 H        1 ZINC000049650290    0.1000
40     H40    -0.2691    1.3389    1.4723 H        1 ZINC000049650290    0.0500
41     H41     0.5453   -0.1838    1.9039 H        1 ZINC000049650290    0.0500
42     H42    -1.5480   -0.2181    2.0220 H        1 ZINC000049650290    0.1300
43     H43    -3.7239   -1.3670    2.0734 H        1 ZINC000049650290    0.1300
44     H44    -8.0448   -4.5001    0.2727 H        1 ZINC000049650290    0.0800
45     H45    -7.1732   -2.9561    0.4292 H        1 ZINC000049650290    0.0800
46     H46    -6.8446   -6.3751   -0.8604 H        1 ZINC000049650290    0.0900
47     H47    -5.0662   -6.3603   -0.7895 H        1 ZINC000049650290    0.0900
48     H48    -3.9038   -6.6926    1.3161 H        1 ZINC000049650290    0.1400
49     H49    -3.9808   -7.6940    3.5634 H        1 ZINC000049650290    0.1300
50     H50    -8.0313   -7.6904    5.4675 H        1 ZINC000049650290    0.0600
51     H51    -7.9808   -9.3166    4.7456 H        1 ZINC000049650290    0.0700
52     H52    -6.7370  -10.1545    6.7203 H        1 ZINC000049650290    0.0900
53     H53    -6.7876   -8.5283    7.4422 H        1 ZINC000049650290    0.0900
54     H54    -9.4022   -6.5795    7.7408 H        1 ZINC000049650290    0.0900
55     H55    -9.5258   -7.0428    9.4550 H        1 ZINC000049650290    0.0800
56     H56    -7.9730   -7.2024    8.5997 H        1 ZINC000049650290    0.1000
57     H57   -10.4415  -13.0368    6.7843 H        1 ZINC000049650290    0.1400
58     H58   -12.1852  -14.7646    6.9399 H        1 ZINC000049650290    0.1300
59     H59   -14.2645  -14.3128    8.1745 H        1 ZINC000049650290    0.1300
60     H60   -14.6129  -12.1330    9.2600 H        1 ZINC000049650290    0.1300
61     H61   -12.8793  -10.3937    9.1216 H        1 ZINC000049650290    0.1300
62     H62    -8.2505   -7.7468    3.3853 H        1 ZINC000049650290    0.1200
63     H63    -8.1651   -6.7406    1.1405 H        1 ZINC000049650290    0.1300
64     H64    -3.3074   -2.3416   -2.0660 H        1 ZINC000049650290    0.1400
65     H65    -1.1344   -1.1872   -2.1192 H        1 ZINC000049650290    0.1400
@<TRIPOS>BOND
1     1     2     1
2     1     39    1
3     1     40    1
4     1     41    1
5     2     3     1
6     3     38    ar
7     3     4     ar
8     4     5     ar
9     4     42    1
10    5     6     ar
11    5     43    1
12    6     7     1
13    6     37    ar
14    7     8     1
15    8     9     2
16    8     10    am
17    10    11    1
18    10    15    1
19    11    12    1
20    11    44    1
21    11    45    1
22    12    13    ar
23    12    14    ar
24    15    16    1
25    15    46    1
26    15    47    1
27    16    36    ar
28    16    17    ar
29    17    18    ar
30    17    48    1
31    18    19    ar
32    18    49    1
33    19    20    1
34    19    35    ar
35    20    21    1
36    21    22    1
37    21    50    1
38    21    51    1
39    22    23    1
40    22    52    1
41    22    53    1
42    23    34    1
43    23    24    2
44    24    25    1
45    24    26    1
46    25    54    1
47    25    55    1
48    25    56    1
49    26    27    1
50    27    28    1
51    27    34    2
52    28    33    ar
53    28    29    ar
54    29    30    ar
55    29    57    1
56    30    31    ar
57    30    58    1
58    31    32    ar
59    31    59    1
60    32    33    ar
61    32    60    1
62    33    61    1
63    35    36    ar
64    35    62    1
65    36    63    1
66    37    38    ar
67    37    64    1
68    38    65    1
@<TRIPOS>SUBSTRUCTURE
1   ZINC000049650290 1     RESIDUE    1   A     ZIN   1


@<TRIPOS>MOLECULE
CCCC1=C(C=CC(=C1)OC2=CC=CC=C2)OCCCOC3=CC=CC(=C3)C4C(=O)NC(=O)S4
60    63    1     0     0
SMALL
USER_CHARGES
@<TRIPOS>ATOM
1      C1      0.3729    1.6621    0.4332 C.3      1 ZINC000003817160   -0.1500
2      C2      0.3497    0.1352    0.5267 C.3      1 ZINC000003817160   -0.1200
3      C3      0.6419   -0.4646   -0.8502 C.3      1 ZINC000003817160   -0.0700
4      C4      0.6191   -1.9686   -0.7581 C.ar     1 ZINC000003817160   -0.0700
5      C5      1.7948   -2.6663   -0.5636 C.ar     1 ZINC000003817160   -0.1100
6      C6      1.7737   -4.0510   -0.4784 C.ar     1 ZINC000003817160    0.0900
7      O7      2.9312   -4.7381   -0.2864 O.3      1 ZINC000003817160   -0.2600
8      C8      2.8646   -6.0935   -0.2174 C.ar     1 ZINC000003817160    0.0800
9      C9      2.9877   -6.8550   -1.3708 C.ar     1 ZINC000003817160   -0.1300
10     C10     2.9195   -8.2327   -1.2979 C.ar     1 ZINC000003817160   -0.1100
11     C11     2.7283   -8.8531   -0.0770 C.ar     1 ZINC000003817160   -0.1200
12     C12     2.6053   -8.0966    1.0739 C.ar     1 ZINC000003817160   -0.1100
13     C13     2.6789   -6.7188    1.0074 C.ar     1 ZINC000003817160   -0.1300
14     C14     0.5717   -4.7343   -0.5886 C.ar     1 ZINC000003817160   -0.1600
15     C15    -0.6043   -4.0361   -0.7832 C.ar     1 ZINC000003817160   -0.1700
16     C16    -0.5837   -2.6517   -0.8631 C.ar     1 ZINC000003817160    0.1100
17     O17    -1.7414   -1.9646   -1.0542 O.3      1 ZINC000003817160   -0.3100
18     C18    -2.9413   -2.7328   -1.1640 C.3      1 ZINC000003817160    0.0600
19     C19    -4.1308   -1.7937   -1.3743 C.3      1 ZINC000003817160   -0.1200
20     C20    -5.4155   -2.6163   -1.4918 C.3      1 ZINC000003817160    0.0700
21     O21    -6.5264   -1.7391   -1.6882 O.3      1 ZINC000003817160   -0.3100
22     C22    -7.7516   -2.3137   -1.8128 C.ar     1 ZINC000003817160    0.1200
23     C23    -7.8827   -3.6927   -1.7417 C.ar     1 ZINC000003817160   -0.2100
24     C24    -9.1296   -4.2744   -1.8683 C.ar     1 ZINC000003817160   -0.0800
25     C25   -10.2458   -3.4833   -2.0661 C.ar     1 ZINC000003817160   -0.1300
26     C26   -10.1177   -2.1082   -2.1378 C.ar     1 ZINC000003817160    0.0000
27     C27   -11.3366   -1.2488   -2.3539 C.3      1 ZINC000003817160   -0.0700
28     H28   -11.0608   -0.1952   -2.3980 H        1 ZINC000003817160    0.1200
29     S29   -12.2180   -1.7490   -3.8713 S.3      1 ZINC000003817160   -0.3900
30     C30   -13.7088   -2.1890   -3.0187 C.2      1 ZINC000003817160    0.5800
31     O31   -14.7260   -2.6187   -3.5274 O.2      1 ZINC000003817160   -0.5100
32     N32   -13.5133   -1.9634   -1.7178 N.pl3    1 ZINC000003817160   -0.7200
33     C33   -12.3603   -1.4887   -1.2659 C.2      1 ZINC000003817160    0.5300
34     O34   -12.1479   -1.2725   -0.0920 O.2      1 ZINC000003817160   -0.5300
35     C35    -8.8743   -1.5214   -2.0057 C.ar     1 ZINC000003817160   -0.1400
36     H36     1.3556    1.9906    0.0950 H        1 ZINC000003817160    0.0500
37     H37    -0.3852    1.9943   -0.2761 H        1 ZINC000003817160    0.0600
38     H38     0.1647    2.0894    1.4141 H        1 ZINC000003817160    0.0500
39     H39     1.1078   -0.1970    1.2360 H        1 ZINC000003817160    0.0600
40     H40    -0.6331   -0.1933    0.8649 H        1 ZINC000003817160    0.0700
41     H41    -0.1162   -0.1324   -1.5595 H        1 ZINC000003817160    0.0800
42     H42     1.6247   -0.1361   -1.1884 H        1 ZINC000003817160    0.0700
43     H43     2.7308   -2.1342   -0.4782 H        1 ZINC000003817160    0.1400
44     H44     3.1363   -6.3710   -2.3248 H        1 ZINC000003817160    0.1300
45     H45     3.0153   -8.8259   -2.1953 H        1 ZINC000003817160    0.1300
46     H46     2.6746   -9.9303   -0.0223 H        1 ZINC000003817160    0.1300
47     H47     2.4557   -8.5835    2.0262 H        1 ZINC000003817160    0.1300
48     H48     2.5828   -6.1283    1.9066 H        1 ZINC000003817160    0.1300
49     H49     0.5552   -5.8122   -0.5226 H        1 ZINC000003817160    0.1300
50     H50    -1.5402   -4.5682   -0.8690 H        1 ZINC000003817160    0.1300
51     H51    -2.8610   -3.4129   -2.0120 H        1 ZINC000003817160    0.0700
52     H52    -3.0895   -3.3078   -0.2499 H        1 ZINC000003817160    0.0700
53     H53    -4.2111   -1.1136   -0.5262 H        1 ZINC000003817160    0.0900
54     H54    -3.9826   -1.2187   -2.2883 H        1 ZINC000003817160    0.0900
55     H55    -5.3351   -3.2963   -2.3398 H        1 ZINC000003817160    0.0600
56     H56    -5.5637   -3.1912   -0.5777 H        1 ZINC000003817160    0.0600
57     H57    -7.0109   -4.3113   -1.5880 H        1 ZINC000003817160    0.1200
58     H58    -9.2322   -5.3481   -1.8130 H        1 ZINC000003817160    0.1200
59     H59   -11.2196   -3.9399   -2.1651 H        1 ZINC000003817160    0.1200
60     H60    -8.7748   -0.4475   -2.0614 H        1 ZINC000003817160    0.1300
@<TRIPOS>BOND
1     1     2     1
2     1     36    1
3     1     37    1
4     1     38    1
5     2     3     1
6     2     39    1
7     2     40    1
8     3     4     1
9     3     41    1
10    3     42    1
11    4     16    ar
12    4     5     ar
13    5     6     ar
14    5     43    1
15    6     7     1
16    6     14    ar
17    7     8     1
18    8     13    ar
19    8     9     ar
20    9     10    ar
21    9     44    1
22    10    11    ar
23    10    45    1
24    11    12    ar
25    11    46    1
26    12    13    ar
27    12    47    1
28    13    48    1
29    14    15    ar
30    14    49    1
31    15    16    ar
32    15    50    1
33    16    17    1
34    17    18    1
35    18    19    1
36    18    51    1
37    18    52    1
38    19    20    1
39    19    53    1
40    19    54    1
41    20    21    1
42    20    55    1
43    20    56    1
44    21    22    1
45    22    35    ar
46    22    23    ar
47    23    24    ar
48    23    57    1
49    24    25    ar
50    24    58    1
51    25    26    ar
52    25    59    1
53    26    27    1
54    26    35    ar
55    27    28    1
56    27    33    1
57    27    29    1
58    29    30    1
59    30    31    2
60    30    32    1
61    32    33    1
62    33    34    2
63    35    60    1
@<TRIPOS>SUBSTRUCTURE
1   ZINC000003817160 1     RESIDUE    1   A     ZIN   1


@<TRIPOS>MOLECULE
O=C1C[C@@H](C2=CC=CC=C2)OC3=CC(O)=CC(OC)=C13
34    36    1     0     0
SMALL
USER_CHARGES
@<TRIPOS>ATOM
1      C1     -0.0173    1.4248    0.0099 C.3      1 ZINC000000338037    0.0200
2      O2      0.0021   -0.0041    0.0020 O.3      1 ZINC000000338037   -0.2800
3      C3      0.6245   -0.6171    1.0393 C.ar     1 ZINC000000338037    0.2400
4      C4      1.2006    0.1337    2.0483 C.ar     1 ZINC000000338037   -0.2900
5      C5      1.8390   -0.4984    3.1084 C.ar     1 ZINC000000338037    0.2200
6      O6      2.3986    0.2459    4.0951 O.3      1 ZINC000000338037   -0.4900
7      C7      1.9097   -1.8842    3.1686 C.ar     1 ZINC000000338037   -0.2300
8      C8      1.3414   -2.6544    2.1693 C.ar     1 ZINC000000338037    0.2400
9      C9      0.6839   -2.0184    1.1000 C.ar     1 ZINC000000338037   -0.3000
10     C10     0.0695   -2.8398    0.0512 C.2      1 ZINC000000338037    0.4000
11     O11    -0.6903   -2.3653   -0.7678 O.2      1 ZINC000000338037   -0.4300
12     C12     0.4324   -4.3139    0.0432 C.3      1 ZINC000000338037   -0.1900
13     C13     0.4675   -4.7808    1.5058 C.3      1 ZINC000000338037    0.1500
14     H14    -0.5180   -4.6506    1.9529 H        1 ZINC000000338037    0.0900
15     C15     0.8562   -6.2358    1.5601 C.ar     1 ZINC000000338037   -0.0900
16     C16     2.1910   -6.5952    1.5579 C.ar     1 ZINC000000338037   -0.0900
17     C17     2.5476   -7.9298    1.6077 C.ar     1 ZINC000000338037   -0.1200
18     C18     1.5693   -8.9051    1.6602 C.ar     1 ZINC000000338037   -0.1100
19     C19     0.2345   -8.5456    1.6633 C.ar     1 ZINC000000338037   -0.1200
20     C20    -0.1220   -7.2108    1.6178 C.ar     1 ZINC000000338037   -0.1000
21     O21     1.4199   -4.0045    2.2293 O.3      1 ZINC000000338037   -0.3000
22     H22     1.0053    1.8021    0.0021 H        1 ZINC000000338037    0.0600
23     H23    -0.5445    1.7859   -0.8732 H        1 ZINC000000338037    0.1100
24     H24    -0.5275    1.7763    0.9067 H        1 ZINC000000338037    0.0600
25     H25     1.1544    1.2121    2.0119 H        1 ZINC000000338037    0.1400
26     H26     1.7991    0.4419    4.8281 H        1 ZINC000000338037    0.4000
27     H27     2.4102   -2.3621    3.9977 H        1 ZINC000000338037    0.1500
28     H28    -0.3193   -4.8783   -0.5087 H        1 ZINC000000338037    0.1100
29     H29     1.4120   -4.4526   -0.4144 H        1 ZINC000000338037    0.1200
30     H30     2.9553   -5.8332    1.5168 H        1 ZINC000000338037    0.1300
31     H31     3.5904   -8.2106    1.6052 H        1 ZINC000000338037    0.1300
32     H32     1.8478   -9.9478    1.6984 H        1 ZINC000000338037    0.1300
33     H33    -0.5298   -9.3076    1.7040 H        1 ZINC000000338037    0.1300
34     H34    -1.1648   -6.9300    1.6203 H        1 ZINC000000338037    0.1300
@<TRIPOS>BOND
1     1     2     1
2     1     22    1
3     1     23    1
4     1     24    1
5     2     3     1
6     3     9     ar
7     3     4     ar
8     4     5     ar
9     4     25    1
10    5     6     1
11    5     7     ar
12    6     26    1
13    7     8     ar
14    7     27    1
15    8     21    1
16    8     9     ar
17    9     10    1
18    10    11    2
19    10    12    1
20    12    13    1
21    12    28    1
22    12    29    1
23    13    14    1
24    13    15    1
25    13    21    1
26    15    20    ar
27    15    16    ar
28    16    17    ar
29    16    30    1
30    17    18    ar
31    17    31    1
32    18    19    ar
33    18    32    1
34    19    20    ar
35    19    33    1
36    20    34    1
@<TRIPOS>SUBSTRUCTURE
1   ZINC000000338037 1     RESIDUE    1   A     ZIN   1


@<TRIPOS>MOLECULE
CC1=C(CCOC2=CC=C(C[C@@H](C(O)=O)OC)C3=C2C=CS3)N=C(C4=CC=CC=C4)O1
53    56    1     0     0
SMALL
USER_CHARGES
@<TRIPOS>ATOM
1      C1     -0.0173    1.4248    0.0099 C.3      1 ZINC000013973811    0.0400
2      O2      0.0021   -0.0041    0.0020 O.3      1 ZINC000013973811   -0.3700
3      C3      0.6518   -0.5703   -1.1379 C.3      1 ZINC000013973811    0.0300
4      H4      0.5366    0.0982   -1.9911 H        1 ZINC000013973811    0.0500
5      C5      0.0214   -1.9259   -1.4632 C.3      1 ZINC000013973811   -0.0600
6      C6     -1.4129   -1.7257   -1.8803 C.ar     1 ZINC000013973811   -0.0600
7      C7     -1.7132   -1.4212   -3.2126 C.ar     1 ZINC000013973811   -0.1000
8      S8     -0.6549   -1.2119   -4.6023 S.3      1 ZINC000013973811    0.1200
9      C9     -2.0074   -0.8818   -5.6675 C.2      1 ZINC000013973811   -0.2200
10     C10    -3.1532   -0.9285   -5.0180 C.2      1 ZINC000013973811   -0.1000
11     C11    -3.0415   -1.2354   -3.6012 C.ar     1 ZINC000013973811   -0.1000
12     C12    -4.0613   -1.3598   -2.6275 C.ar     1 ZINC000013973811    0.1600
13     O13    -5.3610   -1.1833   -2.9823 O.3      1 ZINC000013973811   -0.3100
14     C14    -6.3399   -1.3231   -1.9506 C.3      1 ZINC000013973811    0.0700
15     C15    -7.7343   -1.0909   -2.5357 C.3      1 ZINC000013973811   -0.0300
16     C16    -8.7666   -1.2383   -1.4477 C.2      1 ZINC000013973811   -0.0100
17     C17    -9.3887   -2.3780   -1.0948 C.2      1 ZINC000013973811   -0.0300
18     C18    -9.1827   -3.7367   -1.7132 C.3      1 ZINC000013973811   -0.0700
19     O19   -10.2302   -2.0786   -0.0856 O.3      1 ZINC000013973811   -0.1900
20     C20   -10.1139   -0.7634    0.1668 C.2      1 ZINC000013973811    0.2300
21     C21   -10.8586   -0.0137    1.2005 C.ar     1 ZINC000013973811   -0.0200
22     C22   -10.6496    1.3571    1.3592 C.ar     1 ZINC000013973811   -0.0700
23     C23   -11.3482    2.0510    2.3256 C.ar     1 ZINC000013973811   -0.1200
24     C24   -12.2544    1.3909    3.1364 C.ar     1 ZINC000013973811   -0.1000
25     C25   -12.4662    0.0322    2.9843 C.ar     1 ZINC000013973811   -0.1200
26     C26   -11.7780   -0.6725    2.0182 C.ar     1 ZINC000013973811   -0.0900
27     N27    -9.2244   -0.2577   -0.6548 N.2      1 ZINC000013973811   -0.4600
28     C28    -3.7413   -1.6593   -1.3228 C.ar     1 ZINC000013973811   -0.2100
29     C29    -2.4179   -1.8490   -0.9506 C.ar     1 ZINC000013973811   -0.0500
30     C30     2.1173   -0.7564   -0.8398 C.2      1 ZINC000013973811    0.4800
31     O31     2.5472   -0.5200    0.2763 O.co2    1 ZINC000013973811   -0.6800
32     O32     2.8730   -1.1433   -1.7149 O.co2    1 ZINC000013973811   -0.7000
33     H33     1.0053    1.8021    0.0021 H        1 ZINC000013973811    0.0400
34     H34    -0.5445    1.7859   -0.8732 H        1 ZINC000013973811    0.0200
35     H35    -0.5275    1.7763    0.9067 H        1 ZINC000013973811    0.0700
36     H36     0.5736   -2.3977   -2.2759 H        1 ZINC000013973811    0.0900
37     H37     0.0573   -2.5645   -0.5806 H        1 ZINC000013973811    0.0800
38     H38    -1.9136   -0.6670   -6.7217 H        1 ZINC000013973811    0.1600
39     H39    -4.1028   -0.7520   -5.5013 H        1 ZINC000013973811    0.1400
40     H40    -6.2846   -2.3276   -1.5310 H        1 ZINC000013973811    0.0600
41     H41    -6.1483   -0.5908   -1.1663 H        1 ZINC000013973811    0.0700
42     H42    -7.7896   -0.0864   -2.9552 H        1 ZINC000013973811    0.0900
43     H43    -7.9259   -1.8232   -3.3200 H        1 ZINC000013973811    0.0900
44     H44    -8.3877   -4.2607   -1.1825 H        1 ZINC000013973811    0.0900
45     H45   -10.1062   -4.3115   -1.6435 H        1 ZINC000013973811    0.0800
46     H46    -8.9051   -3.6208   -2.7609 H        1 ZINC000013973811    0.1000
47     H47    -9.9423    1.8735    0.7272 H        1 ZINC000013973811    0.1400
48     H48   -11.1872    3.1117    2.4496 H        1 ZINC000013973811    0.1300
49     H49   -12.7984    1.9387    3.8916 H        1 ZINC000013973811    0.1300
50     H50   -13.1747   -0.4772    3.6207 H        1 ZINC000013973811    0.1300
51     H51   -11.9446   -1.7330    1.9003 H        1 ZINC000013973811    0.1300
52     H52    -4.5250   -1.7530   -0.5856 H        1 ZINC000013973811    0.1300
53     H53    -2.1759   -2.0840    0.0753 H        1 ZINC000013973811    0.1300
@<TRIPOS>BOND
1     1     2     1
2     1     33    1
3     1     34    1
4     1     35    1
5     2     3     1
6     3     4     1
7     3     5     1
8     3     30    1
9     5     6     1
10    5     36    1
11    5     37    1
12    6     29    ar
13    6     7     ar
14    7     11    ar
15    7     8     1
16    8     9     1
17    9     10    2
18    9     38    1
19    10    11    1
20    10    39    1
21    11    12    ar
22    12    13    1
23    12    28    ar
24    13    14    1
25    14    15    1
26    14    40    1
27    14    41    1
28    15    16    1
29    15    42    1
30    15    43    1
31    16    27    1
32    16    17    2
33    17    18    1
34    17    19    1
35    18    44    1
36    18    45    1
37    18    46    1
38    19    20    1
39    20    21    1
40    20    27    2
41    21    26    ar
42    21    22    ar
43    22    23    ar
44    22    47    1
45    23    24    ar
46    23    48    1
47    24    25    ar
48    24    49    1
49    25    26    ar
50    25    50    1
51    26    51    1
52    28    29    ar
53    28    52    1
54    29    53    1
55    30    31    ar
56    30    32    ar
@<TRIPOS>SUBSTRUCTURE
1   ZINC000013973811 1     RESIDUE    1   A     ZIN   1


@<TRIPOS>MOLECULE
O=C(/C(C)=C\C)OC(C(OC)=C(OC)C=C1CC(C)C(C)(O)C2)=C1C3=C2C=C(OC)C(OC)=C3OC
72    74    1     0     0
SMALL
USER_CHARGES
@<TRIPOS>ATOM
1      C1     -0.1447    1.8992   -0.1074 C.3      1 ZINC000014692413   -0.1300
2      C2      0.0786    0.4122   -0.2072 C.2      1 ZINC000014692413   -0.0600
3      C3     -0.9616   -0.4181   -0.2115 C.2      1 ZINC000014692413   -0.1700
4      C4     -0.7383   -1.9051   -0.3113 C.3      1 ZINC000014692413   -0.1100
5      C5     -2.3277    0.1152   -0.1190 C.2      1 ZINC000014692413    0.5100
6      O6     -2.5077    1.3146   -0.0385 O.2      1 ZINC000014692413   -0.4800
7      O7     -3.3810   -0.7256   -0.1234 O.3      1 ZINC000014692413   -0.2800
8      C8     -4.6172   -0.1668   -0.0351 C.ar     1 ZINC000014692413    0.1400
9      C9     -5.2030    0.0559    1.2092 C.ar     1 ZINC000014692413    0.0400
10     O10    -4.5288   -0.2953    2.3377 O.3      1 ZINC000014692413   -0.3200
11     C11    -3.6766    0.6938    2.9187 C.3      1 ZINC000014692413    0.0300
12     C12    -6.4650    0.6315    1.3182 C.ar     1 ZINC000014692413    0.1400
13     O13    -7.0267    0.8148    2.5432 O.3      1 ZINC000014692413   -0.3000
14     C14    -8.3246    1.4115    2.5790 C.3      1 ZINC000014692413    0.0200
15     C15    -7.1551    1.0219    0.1652 C.ar     1 ZINC000014692413   -0.1800
16     C16    -6.5824    0.8203   -1.0271 C.ar     1 ZINC000014692413   -0.0200
17     C17    -5.3050    0.1923   -1.1773 C.ar     1 ZINC000014692413   -0.0700
18     C18    -4.9109   -0.0785   -2.5724 C.ar     1 ZINC000014692413   -0.1000
19     C19    -5.8246   -0.9040   -3.3010 C.ar     1 ZINC000014692413   -0.0100
20     C20    -5.6685   -1.1935   -4.5971 C.ar     1 ZINC000014692413   -0.1700
21     C21    -4.5370   -0.7058   -5.2618 C.ar     1 ZINC000014692413    0.1300
22     O22    -4.3483   -0.9839   -6.5795 O.3      1 ZINC000014692413   -0.3000
23     C23    -5.3450   -1.7798   -7.2238 C.3      1 ZINC000014692413    0.0200
24     C24    -3.6058    0.0635   -4.5715 C.ar     1 ZINC000014692413    0.0300
25     O25    -2.4981    0.5137   -5.2215 O.3      1 ZINC000014692413   -0.3200
26     C26    -1.3468   -0.3327   -5.2042 C.3      1 ZINC000014692413    0.0400
27     C27    -3.7863    0.3819   -3.2276 C.ar     1 ZINC000014692413    0.1400
28     O28    -2.8666    1.1367   -2.5693 O.3      1 ZINC000014692413   -0.3200
29     C29    -2.9873    2.5556   -2.6876 C.3      1 ZINC000014692413    0.0500
30     C30    -6.8574   -1.3943   -2.2827 C.3      1 ZINC000014692413   -0.1500
31     C31    -8.3009   -1.0153   -2.7177 C.3      1 ZINC000014692413    0.1400
32     C32    -9.3038   -1.5671   -1.7024 C.3      1 ZINC000014692413   -0.1800
33     O33    -8.5727   -1.5670   -4.0076 O.3      1 ZINC000014692413   -0.5500
34     C34    -8.4198    0.5678   -2.7769 C.3      1 ZINC000014692413   -0.0700
35     H35    -9.1629    0.9044   -2.0539 H        1 ZINC000014692413    0.0800
36     C36    -8.8444    0.9961   -4.1830 C.3      1 ZINC000014692413   -0.1300
37     C37    -7.0398    1.2020   -2.4357 C.3      1 ZINC000014692413   -0.1200
38     H38     0.8168    2.4125   -0.1188 H        1 ZINC000014692413    0.0600
39     H39    -0.7453    2.2340   -0.9531 H        1 ZINC000014692413    0.0900
40     H40    -0.6670    2.1267    0.8219 H        1 ZINC000014692413    0.0800
41     H41     1.0826    0.0202   -0.2752 H        1 ZINC000014692413    0.1300
42     H42    -0.6393   -2.3256    0.6894 H        1 ZINC000014692413    0.0700
43     H43    -1.5864   -2.3667   -0.8171 H        1 ZINC000014692413    0.0700
44     H44     0.1722   -2.0986   -0.8784 H        1 ZINC000014692413    0.0700
45     H45    -3.2008    0.2851    3.8101 H        1 ZINC000014692413    0.0900
46     H46    -2.9113    0.9825    2.1983 H        1 ZINC000014692413    0.0500
47     H47    -4.2678    1.5682    3.1909 H        1 ZINC000014692413    0.0500
48     H48    -8.2820    2.4016    2.1253 H        1 ZINC000014692413    0.0600
49     H49    -9.0266    0.7880    2.0253 H        1 ZINC000014692413    0.0600
50     H50    -8.6554    1.5000    3.6139 H        1 ZINC000014692413    0.1100
51     H51    -8.1319    1.4771    0.2363 H        1 ZINC000014692413    0.1500
52     H52    -6.3999   -1.7916   -5.1202 H        1 ZINC000014692413    0.1500
53     H53    -5.0732   -1.9264   -8.2691 H        1 ZINC000014692413    0.1000
54     H54    -5.4141   -2.7476   -6.7272 H        1 ZINC000014692413    0.0600
55     H55    -6.3081   -1.2724   -7.1665 H        1 ZINC000014692413    0.0600
56     H56    -1.5684   -1.2584   -5.7353 H        1 ZINC000014692413    0.0400
57     H57    -0.5148    0.1756   -5.6915 H        1 ZINC000014692413    0.0900
58     H58    -1.0792   -0.5609   -4.1725 H        1 ZINC000014692413    0.0500
59     H59    -2.2248    3.0374   -2.0756 H        1 ZINC000014692413    0.1000
60     H60    -2.8537    2.8460   -3.7297 H        1 ZINC000014692413    0.0500
61     H61    -3.9754    2.8658   -2.3478 H        1 ZINC000014692413    0.0400
62     H62    -6.7843   -2.4782   -2.1934 H        1 ZINC000014692413    0.0800
63     H63    -6.6461   -0.9422   -1.3137 H        1 ZINC000014692413    0.1200
64     H64    -9.0979   -1.1417   -0.7202 H        1 ZINC000014692413    0.0700
65     H65   -10.3152   -1.3004   -2.0091 H        1 ZINC000014692413    0.0700
66     H66    -9.2128   -2.6522   -1.6548 H        1 ZINC000014692413    0.0600
67     H67    -8.5085   -2.5312   -4.0445 H        1 ZINC000014692413    0.3700
68     H68    -9.8099    0.5504   -4.4225 H        1 ZINC000014692413    0.0600
69     H69    -8.9258    2.0823   -4.2230 H        1 ZINC000014692413    0.0500
70     H70    -8.1002    0.6606   -4.9053 H        1 ZINC000014692413    0.0600
71     H71    -7.1196    2.2868   -2.5062 H        1 ZINC000014692413    0.0800
72     H72    -6.3002    0.8535   -3.1566 H        1 ZINC000014692413    0.1200
@<TRIPOS>BOND
1     1     2     1
2     1     38    1
3     1     39    1
4     1     40    1
5     2     3     2
6     2     41    1
7     3     4     1
8     3     5     1
9     4     42    1
10    4     43    1
11    4     44    1
12    5     6     2
13    5     7     1
14    7     8     1
15    8     17    ar
16    8     9     ar
17    9     10    1
18    9     12    ar
19    10    11    1
20    11    45    1
21    11    46    1
22    11    47    1
23    12    13    1
24    12    15    ar
25    13    14    1
26    14    48    1
27    14    49    1
28    14    50    1
29    15    16    ar
30    15    51    1
31    16    37    1
32    16    17    ar
33    17    18    1
34    18    27    ar
35    18    19    ar
36    19    20    ar
37    19    30    1
38    20    21    ar
39    20    52    1
40    21    22    1
41    21    24    ar
42    22    23    1
43    23    53    1
44    23    54    1
45    23    55    1
46    24    25    1
47    24    27    ar
48    25    26    1
49    26    56    1
50    26    57    1
51    26    58    1
52    27    28    1
53    28    29    1
54    29    59    1
55    29    60    1
56    29    61    1
57    30    31    1
58    30    62    1
59    30    63    1
60    31    32    1
61    31    33    1
62    31    34    1
63    32    64    1
64    32    65    1
65    32    66    1
66    33    67    1
67    34    35    1
68    34    36    1
69    34    37    1
70    36    68    1
71    36    69    1
72    36    70    1
73    37    71    1
74    37    72    1
@<TRIPOS>SUBSTRUCTURE
1   ZINC000014692413 1     RESIDUE    1   A     ZIN   1


@<TRIPOS>MOLECULE
CC(C)(OC1=CC=C(Cl)C=C1)C(OCC)=O
  31   31    0    0    0
SMALL
USER_CHARGES
NO_NAME
@<TRIPOS>ATOM
    1 C1       -1.3497     2.0719    -0.3820 C.3    1 <0>      -0.1500
    2 C2       -0.9303     0.6079    -0.2353 C.3    1 <0>       0.0600
    3 O3       -2.1112    -0.2370    -0.2430 O.3    1 <0>      -0.3500
    4 C4       -1.9151    -1.5594    -0.1224 C.2    1 <0>       0.4400
    5 O5       -0.7940    -1.9965    -0.0139 O.2    1 <0>      -0.4800
    6 C6       -3.0935    -2.4989    -0.1222 C.3    1 <0>       0.1300
    7 C7       -4.0201    -2.1545     1.0455 C.3    1 <0>      -0.1400
    8 C8       -3.8587    -2.3573    -1.4395 C.3    1 <0>      -0.2000
    9 O9       -2.6305    -3.8436     0.0176 O.3    1 <0>      -0.2800
   10 C10      -1.8076    -4.3171    -0.9550 C.ar   1 <0>       0.1400
   11 C11      -1.3504    -3.4680    -1.9521 C.ar   1 <0>      -0.1800
   12 C12      -0.5141    -3.9512    -2.9398 C.ar   1 <0>      -0.0700
   13 C13      -0.1328    -5.2813    -2.9352 C.ar   1 <0>      -0.0700
   14 Cl14      0.9177    -5.8863    -4.1778 Cl     1 <0>      -0.0700
   15 C15      -0.5874    -6.1297    -1.9412 C.ar   1 <0>      -0.0700
   16 C16      -1.4193    -5.6489    -0.9485 C.ar   1 <0>      -0.1300
   17 H17      -0.4632     2.7062    -0.3762 H      1 <0>       0.0800
   18 H18      -1.8848     2.2041    -1.3224 H      1 <0>       0.0700
   19 H19      -1.9998     2.3486     0.4480 H      1 <0>       0.0700
   20 H20      -0.2802     0.3312    -1.0653 H      1 <0>       0.0700
   21 H21      -0.3951     0.4757     0.7050 H      1 <0>       0.0700
   22 H22      -4.3060    -1.1044     0.9851 H      1 <0>       0.0900
   23 H23      -4.9132    -2.7775     0.9966 H      1 <0>       0.0900
   24 H24      -3.5014    -2.3362     1.9868 H      1 <0>       0.0800
   25 H25      -3.2743    -2.7961    -2.2482 H      1 <0>       0.0800
   26 H26      -4.8155    -2.8737    -1.3611 H      1 <0>       0.0900
   27 H27      -4.0317    -1.3015    -1.6475 H      1 <0>       0.0900
   28 H28      -1.6483    -2.4299    -1.9565 H      1 <0>       0.1300
   29 H29      -0.1579    -3.2904    -3.7163 H      1 <0>       0.1300
   30 H30      -0.2885    -7.1675    -1.9390 H      1 <0>       0.1400
   31 H31      -1.7739    -6.3114    -0.1728 H      1 <0>       0.1400
@<TRIPOS>BOND
   1    1    2 1
   2    1   17 1
   3    1   18 1
   4    1   19 1
   5    2    3 1
   6    2   20 1
   7    2   21 1
   8    3    4 1
   9    4    5 2
  10    4    6 1
  11    6    7 1
  12    6    8 1
  13    6    9 1
  14    7   22 1
  15    7   23 1
  16    7   24 1
  17    8   25 1
  18    8   26 1
  19    8   27 1
  20    9   10 1
  21   10   16 ar
  22   10   11 ar
  23   11   12 ar
  24   11   28 1
  25   12   13 ar
  26   12   29 1
  27   13   14 1
  28   13   15 ar
  29   15   16 ar
  30   15   30 1
  31   16   31 1


@<TRIPOS>MOLECULE
O=C1C(C2=CC=C3C(C=CC(C)(C)O3)=C2O)=COC4=CC(O)=CC=C14
40    43    1     0     0
SMALL
USER_CHARGES
@<TRIPOS>ATOM
1      C1     -0.0187    1.5258    0.0104 C.3      1 ZINC000013130928   -0.1700
2      C2      0.0021   -0.0041    0.0020 C.3      1 ZINC000013130928    0.1500
3      C3     -1.4351   -0.5283    0.0261 C.3      1 ZINC000013130928   -0.1300
4      C4      0.6844   -0.4847   -1.2515 C.2      1 ZINC000013130928   -0.2000
5      C5      2.0035   -0.6662   -1.2639 C.2      1 ZINC000013130928   -0.0800
6      C6      2.7545   -0.3956   -0.0195 C.ar     1 ZINC000013130928   -0.1600
7      C7      2.0415   -0.3071    1.1850 C.ar     1 ZINC000013130928    0.1400
8      C8      2.7127   -0.0554    2.3684 C.ar     1 ZINC000013130928   -0.1500
9      C9      4.0844    0.1090    2.3657 C.ar     1 ZINC000013130928   -0.0500
10     C10     4.8042    0.0241    1.1750 C.ar     1 ZINC000013130928   -0.0600
11     C11     6.2767    0.2028    1.1838 C.2      1 ZINC000013130928   -0.2500
12     C12     7.1103   -0.8603    1.0433 C.2      1 ZINC000013130928    0.1200
13     O13     8.4388   -0.7469    1.0278 O.3      1 ZINC000013130928   -0.2300
14     C14     9.0509    0.3710    1.4612 C.ar     1 ZINC000013130928    0.1800
15     C15    10.4108    0.3653    1.7453 C.ar     1 ZINC000013130928   -0.2900
16     C16    11.0287    1.5252    2.1804 C.ar     1 ZINC000013130928    0.3100
17     O17    12.3576    1.5152    2.4574 O.3      1 ZINC000013130928   -0.7000
18     C18    10.3009    2.7028    2.3365 C.ar     1 ZINC000013130928   -0.2600
19     C19     8.9620    2.7256    2.0656 C.ar     1 ZINC000013130928    0.0000
20     C20     8.3252    1.5636    1.6317 C.ar     1 ZINC000013130928   -0.3400
21     C21     6.8779    1.5414    1.3393 C.2      1 ZINC000013130928    0.4400
22     O22     6.2218    2.5637    1.2371 O.2      1 ZINC000013130928   -0.5000
23     C23     4.1377   -0.2296   -0.0275 C.ar     1 ZINC000013130928    0.1700
24     O24     4.8318   -0.3139   -1.1918 O.3      1 ZINC000013130928   -0.4800
25     O25     0.6936   -0.4721    1.1606 O.3      1 ZINC000013130928   -0.3100
26     H26     1.0039    1.9031    0.0027 H        1 ZINC000013130928    0.0600
27     H27    -0.5459    1.8868   -0.8726 H        1 ZINC000013130928    0.0700
28     H28    -0.5289    1.8773    0.9072 H        1 ZINC000013130928    0.0700
29     H29    -1.9690   -0.1654   -0.8522 H        1 ZINC000013130928    0.0800
30     H30    -1.4244   -1.6182    0.0201 H        1 ZINC000013130928    0.0700
31     H31    -1.9358   -0.1747    0.9274 H        1 ZINC000013130928    0.0700
32     H32     0.1038   -0.6824   -2.1404 H        1 ZINC000013130928    0.1300
33     H33     2.5100   -1.0018   -2.1568 H        1 ZINC000013130928    0.1300
34     H34     2.1634    0.0124    3.2958 H        1 ZINC000013130928    0.1400
35     H35     4.6028    0.3051    3.2926 H        1 ZINC000013130928    0.1400
36     H36     6.6767   -1.8439    0.9396 H        1 ZINC000013130928    0.1800
37     H37    10.9846   -0.5421    1.6273 H        1 ZINC000013130928    0.1100
38     H38    10.7969    3.6011    2.6733 H        1 ZINC000013130928    0.1100
39     H39     8.3994    3.6395    2.1867 H        1 ZINC000013130928    0.1100
40     H40     5.1374   -1.2065   -1.4037 H        1 ZINC000013130928    0.3900
@<TRIPOS>BOND
1     1     2     1
2     1     26    1
3     1     27    1
4     1     28    1
5     2     25    1
6     2     3     1
7     2     4     1
8     3     29    1
9     3     30    1
10    3     31    1
11    4     5     2
12    4     32    1
13    5     6     1
14    5     33    1
15    6     23    ar
16    6     7     ar
17    7     8     ar
18    7     25    1
19    8     9     ar
20    8     34    1
21    9     10    ar
22    9     35    1
23    10    11    1
24    10    23    ar
25    11    21    1
26    11    12    2
27    12    13    1
28    12    36    1
29    13    14    1
30    14    20    ar
31    14    15    ar
32    15    16    ar
33    15    37    1
34    16    17    1
35    16    18    ar
36    18    19    ar
37    18    38    1
38    19    20    ar
39    19    39    1
40    20    21    1
41    21    22    2
42    23    24    1
43    24    40    1
@<TRIPOS>SUBSTRUCTURE
1   ZINC000013130928 1     RESIDUE    1   A     ZIN   1


@<TRIPOS>MOLECULE
ClC(C=C1)=CC=C1C2=NC(COC3=CC=CC(CN(C(OC)=O)CC(O)=O)=C3)=C(C)O2
51    53    1     0     0
SMALL
USER_CHARGES
@<TRIPOS>ATOM
1      C1     -0.0176    1.4478    0.0100 C.3      1 ZINC000044460341    0.0600
2      O2      0.0021   -0.0041    0.0020 O.3      1 ZINC000044460341   -0.3600
3      C3      0.6002   -0.6015   -1.0459 C.2      1 ZINC000044460341    0.6600
4      O4      1.0922    0.0719   -1.9296 O.2      1 ZINC000044460341   -0.5900
5      N5      0.6531   -1.9465   -1.1147 N.am     1 ZINC000044460341   -0.5600
6      C6      0.0598   -2.7584   -0.0493 C.3      1 ZINC000044460341    0.0400
7      C7     -1.3807   -3.0497   -0.3827 C.2      1 ZINC000044460341    0.4800
8      O8     -1.8667   -2.6190   -1.4146 O.co2    1 ZINC000044460341   -0.6800
9      O9     -2.0600   -3.7160    0.3795 O.co2    1 ZINC000044460341   -0.7000
10     C10     1.3039   -2.5965   -2.2549 C.3      1 ZINC000044460341    0.1800
11     C11     2.7641   -2.8065   -1.9472 C.ar     1 ZINC000044460341   -0.0600
12     C12     3.6854   -1.8272   -2.2685 C.ar     1 ZINC000044460341   -0.1300
13     C13     5.0261   -2.0168   -1.9875 C.ar     1 ZINC000044460341   -0.0900
14     C14     5.4479   -3.1858   -1.3846 C.ar     1 ZINC000044460341   -0.2100
15     C15     4.5252   -4.1702   -1.0611 C.ar     1 ZINC000044460341    0.1200
16     O16     4.9377   -5.3211   -0.4676 O.3      1 ZINC000044460341   -0.3100
17     C17     6.3365   -5.4507   -0.2055 C.3      1 ZINC000044460341    0.1500
18     C18     6.6035   -6.7809    0.4504 C.2      1 ZINC000044460341   -0.0200
19     C19     6.5975   -7.0277    1.7728 C.2      1 ZINC000044460341    0.0000
20     C20     6.3229   -6.0284    2.8670 C.3      1 ZINC000044460341   -0.0800
21     O21     6.8821   -8.3348    1.9374 O.3      1 ZINC000044460341   -0.1900
22     C22     7.0586   -8.8713    0.7175 C.2      1 ZINC000044460341    0.2200
23     C23     7.3869  -10.2846    0.4354 C.ar     1 ZINC000044460341   -0.0100
24     C24     7.5500  -10.7166   -0.8818 C.ar     1 ZINC000044460341   -0.0600
25     C25     7.8568  -12.0365   -1.1388 C.ar     1 ZINC000044460341   -0.1100
26     C26     8.0026  -12.9326   -0.0931 C.ar     1 ZINC000044460341   -0.0200
27     Cl27    8.3882  -14.5925   -0.4245 Cl       1 ZINC000044460341   -0.0600
28     C28     7.8424  -12.5099    1.2158 C.ar     1 ZINC000044460341   -0.1100
29     C29     7.5407  -11.1913    1.4855 C.ar     1 ZINC000044460341   -0.0800
30     N30     6.8839   -7.9311   -0.1811 N.2      1 ZINC000044460341   -0.4500
31     C31     3.1803   -3.9752   -1.3390 C.ar     1 ZINC000044460341   -0.1300
32     H32     1.0050    1.8251    0.0023 H        1 ZINC000044460341    0.0600
33     H33    -0.5448    1.8089   -0.8731 H        1 ZINC000044460341    0.0600
34     H34    -0.5278    1.7993    0.9068 H        1 ZINC000044460341    0.1000
35     H35     0.6085   -3.6958    0.0415 H        1 ZINC000044460341    0.0800
36     H36     0.1117   -2.2143    0.8938 H        1 ZINC000044460341    0.0800
37     H37     0.8300   -3.5600   -2.4429 H        1 ZINC000044460341    0.0900
38     H38     1.2058   -1.9649   -3.1378 H        1 ZINC000044460341    0.1000
39     H39     3.3576   -0.9126   -2.7402 H        1 ZINC000044460341    0.1300
40     H40     5.7440   -1.2504   -2.2398 H        1 ZINC000044460341    0.1200
41     H41     6.4951   -3.3336   -1.1657 H        1 ZINC000044460341    0.1200
42     H42     6.8889   -5.3904   -1.1431 H        1 ZINC000044460341    0.0800
43     H43     6.6577   -4.6476    0.4578 H        1 ZINC000044460341    0.0800
44     H44     5.2549   -6.0119    3.0843 H        1 ZINC000044460341    0.1000
45     H45     6.8720   -6.3125    3.7647 H        1 ZINC000044460341    0.0800
46     H46     6.6432   -5.0381    2.5433 H        1 ZINC000044460341    0.1000
47     H47     7.4359  -10.0187   -1.6982 H        1 ZINC000044460341    0.1500
48     H48     7.9833  -12.3719   -2.1576 H        1 ZINC000044460341    0.1400
49     H49     7.9573  -13.2133    2.0272 H        1 ZINC000044460341    0.1400
50     H50     7.4160  -10.8627    2.5067 H        1 ZINC000044460341    0.1400
51     H51     2.4601   -4.7400   -1.0881 H        1 ZINC000044460341    0.1300
@<TRIPOS>BOND
1     1     2     1
2     1     32    1
3     1     33    1
4     1     34    1
5     2     3     1
6     3     4     2
7     3     5     am
8     5     6     1
9     5     10    1
10    6     7     1
11    6     35    1
12    6     36    1
13    7     8     ar
14    7     9     ar
15    10    11    1
16    10    37    1
17    10    38    1
18    11    31    ar
19    11    12    ar
20    12    13    ar
21    12    39    1
22    13    14    ar
23    13    40    1
24    14    15    ar
25    14    41    1
26    15    16    1
27    15    31    ar
28    16    17    1
29    17    18    1
30    17    42    1
31    17    43    1
32    18    30    1
33    18    19    2
34    19    20    1
35    19    21    1
36    20    44    1
37    20    45    1
38    20    46    1
39    21    22    1
40    22    23    1
41    22    30    2
42    23    29    ar
43    23    24    ar
44    24    25    ar
45    24    47    1
46    25    26    ar
47    25    48    1
48    26    27    1
49    26    28    ar
50    28    29    ar
51    28    49    1
52    29    50    1
53    31    51    1
@<TRIPOS>SUBSTRUCTURE
1   ZINC000044460341 1     RESIDUE    1   A     ZIN   1


@<TRIPOS>MOLECULE
O=C(O)[C@@H](OC)CC1=CC=C(OCCCOC2=CC=C(OC3=CC=CC=C3)C=C2)C=C1
56    58    1     0     0
SMALL
USER_CHARGES
@<TRIPOS>ATOM
1      C1      0.7967    5.6997   -0.9494 C.3      1 ZINC000003950327    0.0400
2      O2      0.6418    4.3350   -0.5547 O.3      1 ZINC000003950327   -0.3700
3      C3     -0.7171    3.9347   -0.3678 C.3      1 ZINC000003950327    0.0300
4      H4     -1.3606    4.5124   -1.0313 H        1 ZINC000003950327    0.0500
5      C5     -0.8589    2.4455   -0.6892 C.3      1 ZINC000003950327   -0.0600
6      C6     -0.5737    2.2178   -2.1513 C.ar     1 ZINC000003950327   -0.1000
7      C7     -1.6017    2.2839   -3.0735 C.ar     1 ZINC000003950327   -0.0800
8      C8     -1.3429    2.0756   -4.4144 C.ar     1 ZINC000003950327   -0.1500
9      C9     -0.0500    1.8002   -4.8354 C.ar     1 ZINC000003950327    0.1100
10     O10     0.2073    1.5953   -6.1540 O.3      1 ZINC000003950327   -0.3200
11     C11     1.5616    1.3166   -6.5151 C.3      1 ZINC000003950327    0.0700
12     C12     1.6549    1.1164   -8.0291 C.3      1 ZINC000003950327   -0.1200
13     C13     3.1049    0.8180   -8.4156 C.3      1 ZINC000003950327    0.0600
14     O14     3.1920    0.6309   -9.8297 O.3      1 ZINC000003950327   -0.3100
15     C15     4.4214    0.3556  -10.3413 C.ar     1 ZINC000003950327    0.1000
16     C16     5.5185    0.2620   -9.4979 C.ar     1 ZINC000003950327   -0.1700
17     C17     6.7674   -0.0172  -10.0176 C.ar     1 ZINC000003950327   -0.1500
18     C18     6.9243   -0.2046  -11.3831 C.ar     1 ZINC000003950327    0.0800
19     O19     8.1535   -0.4799  -11.8947 O.3      1 ZINC000003950327   -0.2600
20     C20     9.1984   -0.5703  -11.0308 C.ar     1 ZINC000003950327    0.0800
21     C21     9.5241   -1.7922  -10.4594 C.ar     1 ZINC000003950327   -0.1300
22     C22    10.5871   -1.8814   -9.5818 C.ar     1 ZINC000003950327   -0.1100
23     C23    11.3264   -0.7547   -9.2726 C.ar     1 ZINC000003950327   -0.1200
24     C24    11.0038    0.4642   -9.8403 C.ar     1 ZINC000003950327   -0.1100
25     C25     9.9453    0.5579  -10.7229 C.ar     1 ZINC000003950327   -0.1300
26     C26     5.8269   -0.1115  -12.2266 C.ar     1 ZINC000003950327   -0.1000
27     C27     4.5772    0.1626  -11.7061 C.ar     1 ZINC000003950327   -0.1100
28     C28     0.9799    1.7349   -3.9082 C.ar     1 ZINC000003950327   -0.2100
29     C29     0.7166    1.9487   -2.5690 C.ar     1 ZINC000003950327   -0.0600
30     C30    -1.1210    4.1804    1.0631 C.2      1 ZINC000003950327    0.4800
31     O31    -2.2737    3.9913    1.4123 O.co2    1 ZINC000003950327   -0.7000
32     O32    -0.2950    4.5683    1.8716 O.co2    1 ZINC000003950327   -0.6800
33     H33     1.8563    5.9249   -1.0705 H        1 ZINC000003950327    0.0700
34     H34     0.2797    5.8654   -1.8946 H        1 ZINC000003950327    0.0200
35     H35     0.3723    6.3496   -0.1842 H        1 ZINC000003950327    0.0400
36     H36    -0.1512    1.8751   -0.0878 H        1 ZINC000003950327    0.0700
37     H37    -1.8740    2.1199   -0.4620 H        1 ZINC000003950327    0.0900
38     H38    -2.6081    2.4983   -2.7453 H        1 ZINC000003950327    0.1300
39     H39    -2.1464    2.1266   -5.1343 H        1 ZINC000003950327    0.1300
40     H40     2.1958    2.1523   -6.2194 H        1 ZINC000003950327    0.0600
41     H41     1.8939    0.4110   -6.0077 H        1 ZINC000003950327    0.0600
42     H42     1.0207    0.2807   -8.3248 H        1 ZINC000003950327    0.0900
43     H43     1.3226    2.0220   -8.5365 H        1 ZINC000003950327    0.0900
44     H44     3.7391    1.6537   -8.1199 H        1 ZINC000003950327    0.0700
45     H45     3.4372   -0.0877   -7.9082 H        1 ZINC000003950327    0.0700
46     H46     5.3963    0.4079   -8.4348 H        1 ZINC000003950327    0.1300
47     H47     7.6218   -0.0893   -9.3609 H        1 ZINC000003950327    0.1300
48     H48     8.9467   -2.6725  -10.7003 H        1 ZINC000003950327    0.1300
49     H49    10.8407   -2.8321   -9.1365 H        1 ZINC000003950327    0.1300
50     H50    12.1572   -0.8266   -8.5862 H        1 ZINC000003950327    0.1300
51     H51    11.5825    1.3429   -9.5966 H        1 ZINC000003950327    0.1300
52     H52     9.6939    1.5100  -11.1663 H        1 ZINC000003950327    0.1300
53     H53     5.9489   -0.2573  -13.2897 H        1 ZINC000003950327    0.1400
54     H54     3.7228    0.2351  -12.3627 H        1 ZINC000003950327    0.1400
55     H55     1.9872    1.5203   -4.2335 H        1 ZINC000003950327    0.1200
56     H56     1.5181    1.8983   -1.8468 H        1 ZINC000003950327    0.1300
@<TRIPOS>BOND
1     1     2     1
2     1     33    1
3     1     34    1
4     1     35    1
5     2     3     1
6     3     4     1
7     3     5     1
8     3     30    1
9     5     6     1
10    5     36    1
11    5     37    1
12    6     29    ar
13    6     7     ar
14    7     8     ar
15    7     38    1
16    8     9     ar
17    8     39    1
18    9     10    1
19    9     28    ar
20    10    11    1
21    11    12    1
22    11    40    1
23    11    41    1
24    12    13    1
25    12    42    1
26    12    43    1
27    13    14    1
28    13    44    1
29    13    45    1
30    14    15    1
31    15    27    ar
32    15    16    ar
33    16    17    ar
34    16    46    1
35    17    18    ar
36    17    47    1
37    18    19    1
38    18    26    ar
39    19    20    1
40    20    25    ar
41    20    21    ar
42    21    22    ar
43    21    48    1
44    22    23    ar
45    22    49    1
46    23    24    ar
47    23    50    1
48    24    25    ar
49    24    51    1
50    25    52    1
51    26    27    ar
52    26    53    1
53    27    54    1
54    28    29    ar
55    28    55    1
56    29    56    1
57    30    31    ar
58    30    32    ar
@<TRIPOS>SUBSTRUCTURE
1   ZINC000003950327 1     RESIDUE    1   A     ZIN   1


@<TRIPOS>MOLECULE
O=C(O)C(OC)CC1=CC=C(OCCCOC2=CC=C(OC3=CC=CC=C3)C=C2)C=C1
56    58    1     0     0
SMALL
USER_CHARGES
@<TRIPOS>ATOM
1      C1      0.7967    5.6997   -0.9494 C.3      1 ZINC000003950327    0.0400
2      O2      0.6418    4.3350   -0.5547 O.3      1 ZINC000003950327   -0.3700
3      C3     -0.7171    3.9347   -0.3678 C.3      1 ZINC000003950327    0.0300
4      H4     -1.3606    4.5124   -1.0313 H        1 ZINC000003950327    0.0500
5      C5     -0.8589    2.4455   -0.6892 C.3      1 ZINC000003950327   -0.0600
6      C6     -0.5737    2.2178   -2.1513 C.ar     1 ZINC000003950327   -0.1000
7      C7     -1.6017    2.2839   -3.0735 C.ar     1 ZINC000003950327   -0.0800
8      C8     -1.3429    2.0756   -4.4144 C.ar     1 ZINC000003950327   -0.1500
9      C9     -0.0500    1.8002   -4.8354 C.ar     1 ZINC000003950327    0.1100
10     O10     0.2073    1.5953   -6.1540 O.3      1 ZINC000003950327   -0.3200
11     C11     1.5616    1.3166   -6.5151 C.3      1 ZINC000003950327    0.0700
12     C12     1.6549    1.1164   -8.0291 C.3      1 ZINC000003950327   -0.1200
13     C13     3.1049    0.8180   -8.4156 C.3      1 ZINC000003950327    0.0600
14     O14     3.1920    0.6309   -9.8297 O.3      1 ZINC000003950327   -0.3100
15     C15     4.4214    0.3556  -10.3413 C.ar     1 ZINC000003950327    0.1000
16     C16     5.5185    0.2620   -9.4979 C.ar     1 ZINC000003950327   -0.1700
17     C17     6.7674   -0.0172  -10.0176 C.ar     1 ZINC000003950327   -0.1500
18     C18     6.9243   -0.2046  -11.3831 C.ar     1 ZINC000003950327    0.0800
19     O19     8.1535   -0.4799  -11.8947 O.3      1 ZINC000003950327   -0.2600
20     C20     9.1984   -0.5703  -11.0308 C.ar     1 ZINC000003950327    0.0800
21     C21     9.5241   -1.7922  -10.4594 C.ar     1 ZINC000003950327   -0.1300
22     C22    10.5871   -1.8814   -9.5818 C.ar     1 ZINC000003950327   -0.1100
23     C23    11.3264   -0.7547   -9.2726 C.ar     1 ZINC000003950327   -0.1200
24     C24    11.0038    0.4642   -9.8403 C.ar     1 ZINC000003950327   -0.1100
25     C25     9.9453    0.5579  -10.7229 C.ar     1 ZINC000003950327   -0.1300
26     C26     5.8269   -0.1115  -12.2266 C.ar     1 ZINC000003950327   -0.1000
27     C27     4.5772    0.1626  -11.7061 C.ar     1 ZINC000003950327   -0.1100
28     C28     0.9799    1.7349   -3.9082 C.ar     1 ZINC000003950327   -0.2100
29     C29     0.7166    1.9487   -2.5690 C.ar     1 ZINC000003950327   -0.0600
30     C30    -1.1210    4.1804    1.0631 C.2      1 ZINC000003950327    0.4800
31     O31    -2.2737    3.9913    1.4123 O.co2    1 ZINC000003950327   -0.7000
32     O32    -0.2950    4.5683    1.8716 O.co2    1 ZINC000003950327   -0.6800
33     H33     1.8563    5.9249   -1.0705 H        1 ZINC000003950327    0.0700
34     H34     0.2797    5.8654   -1.8946 H        1 ZINC000003950327    0.0200
35     H35     0.3723    6.3496   -0.1842 H        1 ZINC000003950327    0.0400
36     H36    -0.1512    1.8751   -0.0878 H        1 ZINC000003950327    0.0700
37     H37    -1.8740    2.1199   -0.4620 H        1 ZINC000003950327    0.0900
38     H38    -2.6081    2.4983   -2.7453 H        1 ZINC000003950327    0.1300
39     H39    -2.1464    2.1266   -5.1343 H        1 ZINC000003950327    0.1300
40     H40     2.1958    2.1523   -6.2194 H        1 ZINC000003950327    0.0600
41     H41     1.8939    0.4110   -6.0077 H        1 ZINC000003950327    0.0600
42     H42     1.0207    0.2807   -8.3248 H        1 ZINC000003950327    0.0900
43     H43     1.3226    2.0220   -8.5365 H        1 ZINC000003950327    0.0900
44     H44     3.7391    1.6537   -8.1199 H        1 ZINC000003950327    0.0700
45     H45     3.4372   -0.0877   -7.9082 H        1 ZINC000003950327    0.0700
46     H46     5.3963    0.4079   -8.4348 H        1 ZINC000003950327    0.1300
47     H47     7.6218   -0.0893   -9.3609 H        1 ZINC000003950327    0.1300
48     H48     8.9467   -2.6725  -10.7003 H        1 ZINC000003950327    0.1300
49     H49    10.8407   -2.8321   -9.1365 H        1 ZINC000003950327    0.1300
50     H50    12.1572   -0.8266   -8.5862 H        1 ZINC000003950327    0.1300
51     H51    11.5825    1.3429   -9.5966 H        1 ZINC000003950327    0.1300
52     H52     9.6939    1.5100  -11.1663 H        1 ZINC000003950327    0.1300
53     H53     5.9489   -0.2573  -13.2897 H        1 ZINC000003950327    0.1400
54     H54     3.7228    0.2351  -12.3627 H        1 ZINC000003950327    0.1400
55     H55     1.9872    1.5203   -4.2335 H        1 ZINC000003950327    0.1200
56     H56     1.5181    1.8983   -1.8468 H        1 ZINC000003950327    0.1300
@<TRIPOS>BOND
1     1     2     1
2     1     33    1
3     1     34    1
4     1     35    1
5     2     3     1
6     3     4     1
7     3     5     1
8     3     30    1
9     5     6     1
10    5     36    1
11    5     37    1
12    6     29    ar
13    6     7     ar
14    7     8     ar
15    7     38    1
16    8     9     ar
17    8     39    1
18    9     10    1
19    9     28    ar
20    10    11    1
21    11    12    1
22    11    40    1
23    11    41    1
24    12    13    1
25    12    42    1
26    12    43    1
27    13    14    1
28    13    44    1
29    13    45    1
30    14    15    1
31    15    27    ar
32    15    16    ar
33    16    17    ar
34    16    46    1
35    17    18    ar
36    17    47    1
37    18    19    1
38    18    26    ar
39    19    20    1
40    20    25    ar
41    20    21    ar
42    21    22    ar
43    21    48    1
44    22    23    ar
45    22    49    1
46    23    24    ar
47    23    50    1
48    24    25    ar
49    24    51    1
50    25    52    1
51    26    27    ar
52    26    53    1
53    27    54    1
54    28    29    ar
55    28    55    1
56    29    56    1
57    30    31    ar
58    30    32    ar
@<TRIPOS>SUBSTRUCTURE
1   ZINC000003950327 1     RESIDUE    1   A     ZIN   1


@<TRIPOS>MOLECULE
CC(C)(OC1=CC=C(CCNC(C2=CC=C(Cl)C=C2)=O)C=C1)C(O)=O
44    45    1     0     0
SMALL
USER_CHARGES
@<TRIPOS>ATOM
1      C1      0.6213   -0.8288    1.3839 C.3      1 ZINC000003956919   -0.1700
2      C2      0.0606   -0.1861    0.1137 C.3      1 ZINC000003956919    0.0300
3      C3      0.8778   -0.6472   -1.0948 C.3      1 ZINC000003956919   -0.1100
4      O4     -1.3032   -0.5776   -0.0561 O.3      1 ZINC000003956919   -0.3000
5      C5     -2.1690   -0.2444    0.9371 C.ar     1 ZINC000003956919    0.1700
6      C6     -1.7401    0.5384    1.9991 C.ar     1 ZINC000003956919   -0.1500
7      C7     -2.6222    0.8761    3.0072 C.ar     1 ZINC000003956919   -0.0900
8      C8     -3.9315    0.4342    2.9585 C.ar     1 ZINC000003956919   -0.1500
9      C9     -4.8915    0.8037    4.0598 C.3      1 ZINC000003956919   -0.0700
10     C10    -5.5909    2.1180    3.7071 C.3      1 ZINC000003956919    0.1200
11     N11    -6.5241    2.4771    4.7777 N.am     1 ZINC000003956919   -0.7200
12     C12    -7.2564    3.6047    4.6833 C.2      1 ZINC000003956919    0.5500
13     O13    -7.1425    4.3236    3.7097 O.2      1 ZINC000003956919   -0.5300
14     C14    -8.1979    3.9670    5.7633 C.ar     1 ZINC000003956919   -0.1300
15     C15    -8.3267    3.1462    6.8853 C.ar     1 ZINC000003956919   -0.0700
16     C16    -9.2069    3.4895    7.8898 C.ar     1 ZINC000003956919   -0.1200
17     C17    -9.9623    4.6459    7.7872 C.ar     1 ZINC000003956919   -0.0100
18     Cl18  -11.0678    5.0718    9.0561 Cl       1 ZINC000003956919   -0.0600
19     C19    -9.8388    5.4642    6.6764 C.ar     1 ZINC000003956919   -0.1200
20     C20    -8.9578    5.1343    5.6682 C.ar     1 ZINC000003956919   -0.0500
21     C21    -4.3615   -0.3457    1.9009 C.ar     1 ZINC000003956919   -0.0900
22     C22    -3.4846   -0.6818    0.8877 C.ar     1 ZINC000003956919   -0.1700
23     C23     0.1415    1.3141    0.2320 C.2      1 ZINC000003956919    0.4800
24     O24     1.2230    1.8562    0.3836 O.co2    1 ZINC000003956919   -0.6900
25     O25    -0.8745    1.9857    0.1761 O.co2    1 ZINC000003956919   -0.6700
26     H26     1.6076   -0.4156    1.5952 H        1 ZINC000003956919    0.0700
27     H27    -0.0460   -0.6224    2.2206 H        1 ZINC000003956919    0.0700
28     H28     0.7019   -1.9064    1.2407 H        1 ZINC000003956919    0.0500
29     H29     0.7572   -1.7225   -1.2260 H        1 ZINC000003956919    0.0500
30     H30     0.5278   -0.1307   -1.9885 H        1 ZINC000003956919    0.0600
31     H31     1.9305   -0.4169   -0.9308 H        1 ZINC000003956919    0.0800
32     H32    -0.7174    0.8832    2.0379 H        1 ZINC000003956919    0.1400
33     H33    -2.2888    1.4855    3.8342 H        1 ZINC000003956919    0.1100
34     H34    -5.6355    0.0152    4.1730 H        1 ZINC000003956919    0.0700
35     H35    -4.3436    0.9231    4.9946 H        1 ZINC000003956919    0.0700
36     H36    -4.8468    2.9065    3.5940 H        1 ZINC000003956919    0.0800
37     H37    -6.1387    1.9986    2.7724 H        1 ZINC000003956919    0.0700
38     H38    -6.6150    1.9035    5.5546 H        1 ZINC000003956919    0.4000
39     H39    -7.7385    2.2441    6.9662 H        1 ZINC000003956919    0.1400
40     H40    -9.3076    2.8552    8.7581 H        1 ZINC000003956919    0.1400
41     H41   -10.4305    6.3646    6.6019 H        1 ZINC000003956919    0.1400
42     H42    -8.8622    5.7732    4.8027 H        1 ZINC000003956919    0.1500
43     H43    -5.3847   -0.6894    1.8650 H        1 ZINC000003956919    0.1200
44     H44    -3.8210   -1.2910    0.0618 H        1 ZINC000003956919    0.1200
@<TRIPOS>BOND
1     1     2     1
2     1     26    1
3     1     27    1
4     1     28    1
5     2     3     1
6     2     4     1
7     2     23    1
8     3     29    1
9     3     30    1
10    3     31    1
11    4     5     1
12    5     22    ar
13    5     6     ar
14    6     7     ar
15    6     32    1
16    7     8     ar
17    7     33    1
18    8     9     1
19    8     21    ar
20    9     10    1
21    9     34    1
22    9     35    1
23    10    11    1
24    10    36    1
25    10    37    1
26    11    12    am
27    11    38    1
28    12    13    2
29    12    14    1
30    14    20    ar
31    14    15    ar
32    15    16    ar
33    15    39    1
34    16    17    ar
35    16    40    1
36    17    18    1
37    17    19    ar
38    19    20    ar
39    19    41    1
40    20    42    1
41    21    22    ar
42    21    43    1
43    22    44    1
44    23    24    ar
45    23    25    ar
@<TRIPOS>SUBSTRUCTURE
1   ZINC000003956919 1     RESIDUE    1   A     ZIN   1


@<TRIPOS>MOLECULE
CC(C)(OC1=CC=C(C(C2=CC=C(Cl)C=C2)=O)C=C1)C(O)=O
36    37    1     0     0
SMALL
USER_CHARGES
@<TRIPOS>ATOM
1      C1      1.0927   -0.3318    2.2742 C.3      1 ZINC000000001984   -0.1700
2      C2      0.5598   -0.2057    0.8456 C.3      1 ZINC000000001984    0.0300
3      C3      1.5743   -0.8027   -0.1317 C.3      1 ZINC000000001984   -0.1100
4      O4     -0.6789   -0.9096    0.7354 O.3      1 ZINC000000001984   -0.3000
5      C5     -1.6935   -0.5004    1.5381 C.ar     1 ZINC000000001984    0.2100
6      C6     -1.5404    0.6364    2.3240 C.ar     1 ZINC000000001984   -0.1700
7      C7     -2.5672    1.0553    3.1394 C.ar     1 ZINC000000001984   -0.0300
8      C8     -3.7658    0.3357    3.1766 C.ar     1 ZINC000000001984   -0.2200
9      C9     -4.8690    0.7810    4.0485 C.2      1 ZINC000000001984    0.4400
10     O10    -4.9285    1.9407    4.4094 O.2      1 ZINC000000001984   -0.4600
11     C11    -5.9017   -0.1817    4.4831 C.ar     1 ZINC000000001984   -0.1400
12     C12    -5.6226   -1.5505    4.4980 C.ar     1 ZINC000000001984   -0.0700
13     C13    -6.5905   -2.4439    4.9051 C.ar     1 ZINC000000001984   -0.1200
14     C14    -7.8378   -1.9868    5.2984 C.ar     1 ZINC000000001984   -0.0100
15     Cl15   -9.0513   -3.1182    5.8092 Cl       1 ZINC000000001984   -0.0700
16     C16    -8.1205   -0.6306    5.2863 C.ar     1 ZINC000000001984   -0.1200
17     C17    -7.1595    0.2733    4.8864 C.ar     1 ZINC000000001984   -0.0600
18     C18    -3.9155   -0.8071    2.3846 C.ar     1 ZINC000000001984   -0.0500
19     C19    -2.8854   -1.2159    1.5681 C.ar     1 ZINC000000001984   -0.1800
20     C20     0.3419    1.2489    0.5173 C.2      1 ZINC000000001984    0.4800
21     O21     1.2785    2.0286    0.5522 O.co2    1 ZINC000000001984   -0.6800
22     O22    -0.7710    1.6459    0.2167 O.co2    1 ZINC000000001984   -0.6700
23     H23     2.0538    0.1768    2.3497 H        1 ZINC000000001984    0.0800
24     H24     0.3853    0.1235    2.9674 H        1 ZINC000000001984    0.0700
25     H25     1.2186   -1.3854    2.5234 H        1 ZINC000000001984    0.0500
26     H26     1.6664   -1.8736    0.0492 H        1 ZINC000000001984    0.0500
27     H27     1.2362   -0.6347   -1.1542 H        1 ZINC000000001984    0.0600
28     H28     2.5433   -0.3251    0.0136 H        1 ZINC000000001984    0.0800
29     H29    -0.6143    1.1913    2.2948 H        1 ZINC000000001984    0.1500
30     H30    -2.4473    1.9382    3.7497 H        1 ZINC000000001984    0.1300
31     H31    -4.6509   -1.9080    4.1909 H        1 ZINC000000001984    0.1500
32     H32    -6.3760   -3.5023    4.9170 H        1 ZINC000000001984    0.1400
33     H33    -9.0947   -0.2805    5.5941 H        1 ZINC000000001984    0.1400
34     H34    -7.3810    1.3303    4.8774 H        1 ZINC000000001984    0.1400
35     H35    -4.8395   -1.3657    2.4103 H        1 ZINC000000001984    0.1300
36     H36    -3.0002   -2.0983    0.9560 H        1 ZINC000000001984    0.1300
@<TRIPOS>BOND
1     1     2     1
2     1     23    1
3     1     24    1
4     1     25    1
5     2     3     1
6     2     4     1
7     2     20    1
8     3     26    1
9     3     27    1
10    3     28    1
11    4     5     1
12    5     19    ar
13    5     6     ar
14    6     7     ar
15    6     29    1
16    7     8     ar
17    7     30    1
18    8     9     1
19    8     18    ar
20    9     10    2
21    9     11    1
22    11    17    ar
23    11    12    ar
24    12    13    ar
25    12    31    1
26    13    14    ar
27    13    32    1
28    14    15    1
29    14    16    ar
30    16    17    ar
31    16    33    1
32    17    34    1
33    18    19    ar
34    18    35    1
35    19    36    1
36    20    21    ar
37    20    22    ar
@<TRIPOS>SUBSTRUCTURE
1   ZINC000000001984 1     RESIDUE    1   A     ZIN   1


@<TRIPOS>MOLECULE
O=C(O)[C@@H](OCC)CC1=CC=C(OCCC2=CC=C(OS(=O)(C)=O)C=C2)C=C1
51    52    1     0     0
SMALL
USER_CHARGES
@<TRIPOS>ATOM
1      C1     -0.0187    1.5258    0.0104 C.3      1 ZINC000001550769   -0.1400
2      C2      0.0021   -0.0041    0.0020 C.3      1 ZINC000001550769    0.0700
3      O3     -1.3386   -0.4987    0.0122 O.3      1 ZINC000001550769   -0.3700
4      C4     -1.4321   -1.9246    0.0054 C.3      1 ZINC000001550769    0.0300
5      H5     -0.5629   -2.3481    0.5087 H        1 ZINC000001550769    0.0500
6      C6     -2.7050   -2.3557    0.7365 C.3      1 ZINC000001550769   -0.0600
7      C7     -2.6049   -1.9696    2.1898 C.ar     1 ZINC000001550769   -0.1000
8      C8     -2.0529   -2.8505    3.1014 C.ar     1 ZINC000001550769   -0.0800
9      C9     -1.9599   -2.4990    4.4342 C.ar     1 ZINC000001550769   -0.1500
10     C10    -2.4206   -1.2607    4.8575 C.ar     1 ZINC000001550769    0.1100
11     O11    -2.3298   -0.9124    6.1679 O.3      1 ZINC000001550769   -0.3200
12     C12    -2.8241    0.3780    6.5319 C.3      1 ZINC000001550769    0.0600
13     C13    -2.6382    0.5898    8.0358 C.3      1 ZINC000001550769   -0.0800
14     C14    -3.1594    1.9507    8.4196 C.ar     1 ZINC000001550769   -0.0600
15     C15    -2.3165    3.0463    8.3896 C.ar     1 ZINC000001550769   -0.0900
16     C16    -2.7919    4.2948    8.7411 C.ar     1 ZINC000001550769   -0.0800
17     C17    -4.1165    4.4489    9.1239 C.ar     1 ZINC000001550769    0.0600
18     O18    -4.5866    5.6762    9.4696 O.3      1 ZINC000001550769   -0.6600
19     S19    -5.1557    6.4721    8.3038 S.o2     1 ZINC000001550769    2.6000
20     C20    -6.7604    5.6963    7.9665 C.3      1 ZINC000001550769   -0.7000
21     O21    -5.3348    7.7810    8.8273 O.2      1 ZINC000001550769   -0.9300
22     O22    -4.2495    6.2275    7.2369 O.2      1 ZINC000001550769   -0.9500
23     C23    -4.9603    3.3481    9.1527 C.ar     1 ZINC000001550769   -0.1300
24     C24    -4.4813    2.1025    8.7957 C.ar     1 ZINC000001550769   -0.1000
25     C25    -2.9736   -0.3785    3.9407 C.ar     1 ZINC000001550769   -0.2100
26     C26    -3.0599   -0.7329    2.6083 C.ar     1 ZINC000001550769   -0.0600
27     C27    -1.4785   -2.4182   -1.4177 C.2      1 ZINC000001550769    0.4800
28     O28    -1.4670   -3.6154   -1.6484 O.co2    1 ZINC000001550769   -0.7000
29     O29    -1.5276   -1.6204   -2.3384 O.co2    1 ZINC000001550769   -0.6800
30     H30     1.0039    1.9031    0.0027 H        1 ZINC000001550769    0.0600
31     H31    -0.5459    1.8868   -0.8726 H        1 ZINC000001550769    0.0600
32     H32    -0.5289    1.8773    0.9072 H        1 ZINC000001550769    0.0500
33     H33     0.5123   -0.3556   -0.8948 H        1 ZINC000001550769    0.0500
34     H34     0.5293   -0.3651    0.8851 H        1 ZINC000001550769    0.0300
35     H35    -3.5668   -1.8615    0.2879 H        1 ZINC000001550769    0.0700
36     H36    -2.8227   -3.4363    0.6549 H        1 ZINC000001550769    0.0900
37     H37    -1.6945   -3.8144    2.7714 H        1 ZINC000001550769    0.1300
38     H38    -1.5294   -3.1877    5.1460 H        1 ZINC000001550769    0.1300
39     H39    -2.2743    1.1449    5.9863 H        1 ZINC000001550769    0.0700
40     H40    -3.8834    0.4446    6.2839 H        1 ZINC000001550769    0.0600
41     H41    -3.1880   -0.1771    8.5814 H        1 ZINC000001550769    0.0900
42     H42    -1.5789    0.5232    8.2838 H        1 ZINC000001550769    0.0900
43     H43    -1.2855    2.9258    8.0916 H        1 ZINC000001550769    0.1400
44     H44    -2.1329    5.1502    8.7182 H        1 ZINC000001550769    0.1400
45     H45    -7.3910    5.7657    8.8529 H        1 ZINC000001550769    0.1300
46     H46    -7.2444    6.2091    7.1353 H        1 ZINC000001550769    0.1400
47     H47    -6.6101    4.6480    7.7087 H        1 ZINC000001550769    0.1300
48     H48    -5.9917    3.4655    9.4507 H        1 ZINC000001550769    0.1400
49     H49    -5.1379    1.2453    8.8177 H        1 ZINC000001550769    0.1400
50     H50    -3.3331    0.5859    4.2678 H        1 ZINC000001550769    0.1200
51     H51    -3.4899   -0.0463    1.8941 H        1 ZINC000001550769    0.1300
@<TRIPOS>BOND
1     1     2     1
2     1     30    1
3     1     31    1
4     1     32    1
5     2     3     1
6     2     33    1
7     2     34    1
8     3     4     1
9     4     5     1
10    4     6     1
11    4     27    1
12    6     7     1
13    6     35    1
14    6     36    1
15    7     26    ar
16    7     8     ar
17    8     9     ar
18    8     37    1
19    9     10    ar
20    9     38    1
21    10    11    1
22    10    25    ar
23    11    12    1
24    12    13    1
25    12    39    1
26    12    40    1
27    13    14    1
28    13    41    1
29    13    42    1
30    14    24    ar
31    14    15    ar
32    15    16    ar
33    15    43    1
34    16    17    ar
35    16    44    1
36    17    18    1
37    17    23    ar
38    18    19    1
39    19    20    1
40    19    21    2
41    19    22    2
42    20    45    1
43    20    46    1
44    20    47    1
45    23    24    ar
46    23    48    1
47    24    49    1
48    25    26    ar
49    25    50    1
50    26    51    1
51    27    28    ar
52    27    29    ar
@<TRIPOS>SUBSTRUCTURE
1   ZINC000001550769 1     RESIDUE    1   A     ZIN   1


@<TRIPOS>MOLECULE
C1(COC2=CC=C(OCC3=CC=CC=C3CC4=NN=NN4)C=C2)=NC5=CC=CC=C5C=C1
52    56    1     0     0
SMALL
USER_CHARGES
@<TRIPOS>ATOM
1      C1     -5.4306   -3.3571    0.0345 C.ar     1 ZINC000003782943   -0.1200
2      C2     -4.3301   -4.2113    0.0189 C.ar     1 ZINC000003782943   -0.1000
3      C3     -3.0605   -3.7209    0.0099 C.ar     1 ZINC000003782943   -0.0900
4      C4     -2.8495   -2.3313    0.0158 C.ar     1 ZINC000003782943    0.1300
5      N5     -1.6140   -1.8208    0.0023 N.ar     1 ZINC000003782943   -0.4700
6      C6     -1.4117   -0.5257    0.0127 C.ar     1 ZINC000003782943    0.1700
7      C7      0.0021   -0.0041    0.0020 C.3      1 ZINC000003782943    0.1100
8      O8     -0.0173    1.4248    0.0099 O.3      1 ZINC000003782943   -0.3200
9      C9      1.1858    2.0586    0.0018 C.ar     1 ZINC000003782943    0.0800
10     C10     2.3591    1.3190   -0.0077 C.ar     1 ZINC000003782943   -0.1600
11     C11     3.5812    1.9629   -0.0212 C.ar     1 ZINC000003782943   -0.1600
12     C12     3.6350    3.3488   -0.0138 C.ar     1 ZINC000003782943    0.1100
13     O13     4.8380    3.9825   -0.0215 O.3      1 ZINC000003782943   -0.3100
14     C14     6.0054    3.1584   -0.0367 C.3      1 ZINC000003782943    0.0900
15     C15     7.2351    4.0294   -0.0433 C.ar     1 ZINC000003782943   -0.0800
16     C16     7.1073    5.4056   -0.0348 C.ar     1 ZINC000003782943   -0.1000
17     C17     8.2356    6.2047   -0.0405 C.ar     1 ZINC000003782943   -0.1300
18     C18     9.4913    5.6273   -0.0552 C.ar     1 ZINC000003782943   -0.1200
19     C19     9.6191    4.2507   -0.0637 C.ar     1 ZINC000003782943   -0.1100
20     C20     8.4913    3.4519   -0.0523 C.ar     1 ZINC000003782943   -0.0500
21     C21     8.6307    1.9513   -0.0553 C.3      1 ZINC000003782943    0.0300
22     C22     8.5447    1.4417   -1.4709 C.2      1 ZINC000003782943    0.0600
23     N23     7.4483    1.0724   -2.1086 N.2      1 ZINC000003782943   -0.3900
24     N24     7.7919    0.7031   -3.2952 N.pl3    1 ZINC000003782943   -0.2000
25     N25     9.0686    0.8222   -3.4156 N.2      1 ZINC000003782943   -0.2000
26     N26     9.5521    1.2737   -2.3089 N.2      1 ZINC000003782943   -0.3800
27     C27     2.4617    4.0883    0.0009 C.ar     1 ZINC000003782943   -0.1200
28     C28     1.2396    3.4445    0.0087 C.ar     1 ZINC000003782943   -0.1100
29     C29    -2.4692    0.3815    0.0277 C.ar     1 ZINC000003782943   -0.1500
30     C30    -3.7571   -0.0729    0.0371 C.ar     1 ZINC000003782943   -0.0600
31     C31    -3.9705   -1.4644    0.0312 C.ar     1 ZINC000003782943   -0.1000
32     C32    -5.2659   -2.0054    0.0397 C.ar     1 ZINC000003782943   -0.1000
33     H33    -6.4275   -3.7725    0.0417 H        1 ZINC000003782943    0.1300
34     H34    -4.4870   -5.2798    0.0143 H        1 ZINC000003782943    0.1300
35     H35    -2.2184   -4.3970   -0.0021 H        1 ZINC000003782943    0.1400
36     H36     0.5123   -0.3556   -0.8948 H        1 ZINC000003782943    0.0900
37     H37     0.5293   -0.3651    0.8851 H        1 ZINC000003782943    0.0900
38     H38     2.3173    0.2399   -0.0086 H        1 ZINC000003782943    0.1300
39     H39     4.4948    1.3870   -0.0331 H        1 ZINC000003782943    0.1400
40     H40     6.0140    2.5244    0.8499 H        1 ZINC000003782943    0.0700
41     H41     5.9976    2.5339   -0.9300 H        1 ZINC000003782943    0.1100
42     H42     6.1261    5.8567   -0.0233 H        1 ZINC000003782943    0.1300
43     H43     8.1357    7.2800   -0.0338 H        1 ZINC000003782943    0.1200
44     H44    10.3726    6.2515   -0.0603 H        1 ZINC000003782943    0.1200
45     H45    10.6003    3.7996   -0.0755 H        1 ZINC000003782943    0.1200
46     H46     9.5945    1.6751    0.3724 H        1 ZINC000003782943    0.0800
47     H47     7.8299    1.5108    0.5387 H        1 ZINC000003782943    0.0700
48     H48     2.5035    5.1674    0.0067 H        1 ZINC000003782943    0.1400
49     H49     0.3260    4.0203    0.0206 H        1 ZINC000003782943    0.1300
50     H50    -2.2705    1.4431    0.0322 H        1 ZINC000003782943    0.1500
51     H51    -4.5886    0.6161    0.0491 H        1 ZINC000003782943    0.1400
52     H52    -6.1268   -1.3534    0.0514 H        1 ZINC000003782943    0.1300
@<TRIPOS>BOND
1     1     32    ar
2     1     2     ar
3     1     33    1
4     2     3     ar
5     2     34    1
6     3     4     ar
7     3     35    1
8     4     31    ar
9     4     5     ar
10    5     6     ar
11    6     7     1
12    6     29    ar
13    7     8     1
14    7     36    1
15    7     37    1
16    8     9     1
17    9     28    ar
18    9     10    ar
19    10    11    ar
20    10    38    1
21    11    12    ar
22    11    39    1
23    12    13    1
24    12    27    ar
25    13    14    1
26    14    15    1
27    14    40    1
28    14    41    1
29    15    20    ar
30    15    16    ar
31    16    17    ar
32    16    42    1
33    17    18    ar
34    17    43    1
35    18    19    ar
36    18    44    1
37    19    20    ar
38    19    45    1
39    20    21    1
40    21    22    1
41    21    46    1
42    21    47    1
43    22    26    1
44    22    23    2
45    23    24    1
46    24    25    1
47    25    26    2
48    27    28    ar
49    27    48    1
50    28    49    1
51    29    30    ar
52    29    50    1
53    30    31    ar
54    30    51    1
55    31    32    ar
56    32    52    1
@<TRIPOS>SUBSTRUCTURE
1   ZINC000003782943 1     RESIDUE    1   A     ZIN   1


@<TRIPOS>MOLECULE
CC1=NC2=C(C(=N1)NC3=NNC4=C3CN(C4(C)C)C(=O)NC(CN(C)C)C5=CC=CC=C5)SC=C2
66    70    1     0     0
SMALL
USER_CHARGES
@<TRIPOS>ATOM
1      C1     -0.8466    1.0806    0.4206 C.3      1 ZINC000043203531   -0.0800
2      C2     -1.2918   -0.3497    0.2554 C.ar     1 ZINC000043203531    0.3700
3      N3     -1.0675   -0.9551   -0.8970 N.ar     1 ZINC000043203531   -0.5200
4      C4     -1.4425   -2.2146   -1.0871 C.ar     1 ZINC000043203531    0.4800
5      N5     -1.2046   -2.8457   -2.2979 N.pl3    1 ZINC000043203531   -0.6100
6      C6     -0.5636   -2.1547   -3.3337 C.2      1 ZINC000043203531    0.3500
7      N7     -0.1357   -0.9157   -3.2842 N.2      1 ZINC000043203531   -0.2300
8      N8      0.4441   -0.6044   -4.5200 N.pl3    1 ZINC000043203531   -0.4400
9      C9      0.3508   -1.6957   -5.3131 C.2      1 ZINC000043203531    0.0900
10     C10    -0.2604   -2.6698   -4.6073 C.2      1 ZINC000043203531   -0.3000
11     C11    -0.3815   -3.9056   -5.4627 C.3      1 ZINC000043203531    0.1800
12     N12     0.2155   -3.5991   -6.7676 N.am     1 ZINC000043203531   -0.6100
13     C13     0.3149   -4.4280   -7.8257 C.2      1 ZINC000043203531    0.7300
14     O14     0.8365   -4.0416   -8.8538 O.2      1 ZINC000043203531   -0.5700
15     N15    -0.1640   -5.6852   -7.7442 N.am     1 ZINC000043203531   -0.7500
16     C16    -0.1662   -6.5465   -8.9292 C.3      1 ZINC000043203531    0.1800
17     H17     0.4804   -6.1149   -9.6933 H        1 ZINC000043203531    0.1300
18     C18    -1.5916   -6.6619   -9.4732 C.3      1 ZINC000043203531   -0.0200
19     N19    -2.0764   -5.3310   -9.8626 N.4      1 ZINC000043203531   -0.3900
20     H20    -1.9759   -4.6957   -9.0851 H        1 ZINC000043203531    0.4200
21     C21    -1.2914   -4.8381  -11.0023 C.3      1 ZINC000043203531   -0.0600
22     C22    -3.4923   -5.4179  -10.2442 C.3      1 ZINC000043203531   -0.0500
23     C23     0.3415   -7.9154   -8.5562 C.ar     1 ZINC000043203531   -0.1200
24     C24    -0.0380   -8.4905   -7.3578 C.ar     1 ZINC000043203531   -0.1100
25     C25     0.4278   -9.7462   -7.0156 C.ar     1 ZINC000043203531   -0.1100
26     C26     1.2726  -10.4271   -7.8720 C.ar     1 ZINC000043203531   -0.1000
27     C27     1.6514   -9.8525   -9.0708 C.ar     1 ZINC000043203531   -0.1100
28     C28     1.1823   -8.5985   -9.4150 C.ar     1 ZINC000043203531   -0.1000
29     C29     0.6856   -2.2111   -6.6900 C.3      1 ZINC000043203531    0.2600
30     C30    -0.0265   -1.3617   -7.7447 C.3      1 ZINC000043203531   -0.1600
31     C31     2.1982   -2.1615   -6.9147 C.3      1 ZINC000043203531   -0.1600
32     C32    -2.0840   -2.8964   -0.0403 C.ar     1 ZINC000043203531   -0.3100
33     S33    -2.7108   -4.5341    0.0758 S.3      1 ZINC000043203531    0.1200
34     C34    -3.2436   -4.2617    1.7264 C.2      1 ZINC000043203531   -0.1400
35     C35    -2.9541   -3.0301    2.1156 C.2      1 ZINC000043203531   -0.1200
36     C36    -2.3054   -2.2261    1.1652 C.ar     1 ZINC000043203531    0.2000
37     N37    -1.8811   -0.9452    1.2616 N.ar     1 ZINC000043203531   -0.5200
38     H38     0.1737    1.1016    0.8035 H        1 ZINC000043203531    0.0900
39     H39    -0.8831    1.5862   -0.5443 H        1 ZINC000043203531    0.0900
40     H40    -1.5084    1.5884    1.1222 H        1 ZINC000043203531    0.0900
41     H41    -1.4820   -3.7660   -2.4279 H        1 ZINC000043203531    0.4300
42     H42     0.8427    0.2454   -4.7646 H        1 ZINC000043203531    0.4500
43     H43     0.1536   -4.7326   -4.9960 H        1 ZINC000043203531    0.0800
44     H44    -1.4322   -4.1669   -5.5887 H        1 ZINC000043203531    0.0800
45     H45    -0.5072   -6.0197   -6.9008 H        1 ZINC000043203531    0.4100
46     H46    -1.5965   -7.3192  -10.3427 H        1 ZINC000043203531    0.1500
47     H47    -2.2424   -7.0744   -8.7022 H        1 ZINC000043203531    0.1400
48     H48    -1.4457   -5.4928  -11.8600 H        1 ZINC000043203531    0.1200
49     H49    -1.6122   -3.8273  -11.2544 H        1 ZINC000043203531    0.1200
50     H50    -0.2340   -4.8284  -10.7381 H        1 ZINC000043203531    0.1400
51     H51    -4.0747   -5.7837   -9.3985 H        1 ZINC000043203531    0.1200
52     H52    -3.8520   -4.4304  -10.5331 H        1 ZINC000043203531    0.1200
53     H53    -3.6007   -6.1042  -11.0840 H        1 ZINC000043203531    0.1300
54     H54    -0.6980   -7.9585   -6.6887 H        1 ZINC000043203531    0.1200
55     H55     0.1318  -10.1952   -6.0790 H        1 ZINC000043203531    0.1300
56     H56     1.6371  -11.4079   -7.6044 H        1 ZINC000043203531    0.1300
57     H57     2.3118  -10.3843   -9.7398 H        1 ZINC000043203531    0.1300
58     H58     1.4782   -8.1495  -10.3516 H        1 ZINC000043203531    0.1300
59     H59    -1.1016   -1.3881   -7.5672 H        1 ZINC000043203531    0.0600
60     H60     0.3270   -0.3326   -7.6817 H        1 ZINC000043203531    0.0800
61     H61     0.1879   -1.7594   -8.7367 H        1 ZINC000043203531    0.0800
62     H62     2.4327   -2.5664   -7.8992 H        1 ZINC000043203531    0.0900
63     H63     2.5406   -1.1284   -6.8558 H        1 ZINC000043203531    0.0700
64     H64     2.6988   -2.7545   -6.1493 H        1 ZINC000043203531    0.0600
65     H65    -3.7403   -4.9984    2.3404 H        1 ZINC000043203531    0.1800
66     H66    -3.2015   -2.6666    3.1020 H        1 ZINC000043203531    0.1600
@<TRIPOS>BOND
1     1     2     1
2     1     38    1
3     1     39    1
4     1     40    1
5     2     37    ar
6     2     3     ar
7     3     4     ar
8     4     5     1
9     4     32    ar
10    5     6     1
11    5     41    1
12    6     10    1
13    6     7     2
14    7     8     1
15    8     9     1
16    8     42    1
17    9     29    1
18    9     10    2
19    10    11    1
20    11    12    1
21    11    43    1
22    11    44    1
23    12    13    am
24    12    29    1
25    13    14    2
26    13    15    am
27    15    16    1
28    15    45    1
29    16    17    1
30    16    18    1
31    16    23    1
32    18    19    1
33    18    46    1
34    18    47    1
35    19    20    1
36    19    21    1
37    19    22    1
38    21    48    1
39    21    49    1
40    21    50    1
41    22    51    1
42    22    52    1
43    22    53    1
44    23    28    ar
45    23    24    ar
46    24    25    ar
47    24    54    1
48    25    26    ar
49    25    55    1
50    26    27    ar
51    26    56    1
52    27    28    ar
53    27    57    1
54    28    58    1
55    29    30    1
56    29    31    1
57    30    59    1
58    30    60    1
59    30    61    1
60    31    62    1
61    31    63    1
62    31    64    1
63    32    36    ar
64    32    33    1
65    33    34    1
66    34    35    2
67    34    65    1
68    35    36    1
69    35    66    1
70    36    37    ar
@<TRIPOS>SUBSTRUCTURE
1   ZINC000043203531 1     RESIDUE    1   A     ZIN   1


@<TRIPOS>MOLECULE
C1CCC(CC1)C2=CC=C(C=C2)CN(C3=CC(=C(C=C3)O)C(=O)O)C(=O)C4=CC=C(C=C4)OC5=CC=CC=C5
69    73    1     0     0
SMALL
USER_CHARGES
@<TRIPOS>ATOM
1      O1     -4.5152    1.6901   -4.5540 O.co2    1 ZINC000103300707   -0.6900
2      C2     -3.8535    2.6147   -4.1023 C.2      1 ZINC000103300707    0.5200
3      O3     -3.1642    3.2957   -4.8491 O.co2    1 ZINC000103300707   -0.6700
4      C4     -3.8915    2.9115   -2.6613 C.ar     1 ZINC000103300707   -0.1500
5      C5     -4.7967    2.2448   -1.8300 C.ar     1 ZINC000103300707   -0.0400
6      C6     -4.8257    2.5293   -0.4762 C.ar     1 ZINC000103300707    0.1100
7      N7     -5.7314    1.8622    0.3585 N.am     1 ZINC000103300707   -0.5500
8      C8     -6.7195    2.6250    1.1253 C.3      1 ZINC000103300707    0.1100
9      C9     -7.6455    3.3429    0.1776 C.ar     1 ZINC000103300707   -0.1100
10     C10    -7.4164    4.6682   -0.1415 C.ar     1 ZINC000103300707   -0.0900
11     C11    -8.2658    5.3267   -1.0108 C.ar     1 ZINC000103300707   -0.1100
12     C12    -9.3442    4.6597   -1.5613 C.ar     1 ZINC000103300707   -0.0700
13     C13   -10.2706    5.3777   -2.5086 C.3      1 ZINC000103300707   -0.0500
14     C14   -10.2666    4.6662   -3.8631 C.3      1 ZINC000103300707   -0.1100
15     C15   -11.2071    5.3952   -4.8249 C.3      1 ZINC000103300707   -0.1200
16     C16   -12.6255    5.3922   -4.2514 C.3      1 ZINC000103300707   -0.1200
17     C17   -12.6295    6.1037   -2.8969 C.3      1 ZINC000103300707   -0.1200
18     C18   -11.6890    5.3747   -1.9351 C.3      1 ZINC000103300707   -0.1100
19     C19    -9.5726    3.3340   -1.2433 C.ar     1 ZINC000103300707   -0.1100
20     C20    -8.7210    2.6744   -0.3769 C.ar     1 ZINC000103300707   -0.1100
21     C21    -5.6939    0.5185    0.4561 C.2      1 ZINC000103300707    0.5500
22     O22    -4.9472   -0.1224   -0.2583 O.2      1 ZINC000103300707   -0.5000
23     C23    -6.5589   -0.1750    1.4301 C.ar     1 ZINC000103300707   -0.1100
24     C24    -7.8438    0.3071    1.6937 C.ar     1 ZINC000103300707   -0.1100
25     C25    -8.6479   -0.3427    2.6032 C.ar     1 ZINC000103300707   -0.1200
26     C26    -8.1828   -1.4768    3.2592 C.ar     1 ZINC000103300707    0.1000
27     O27    -8.9780   -2.1142    4.1552 O.3      1 ZINC000103300707   -0.2600
28     C28    -8.7759   -1.8676    5.4761 C.ar     1 ZINC000103300707    0.1200
29     C29    -9.6463   -2.3905    6.4218 C.ar     1 ZINC000103300707   -0.1500
30     C30    -9.4384   -2.1388    7.7640 C.ar     1 ZINC000103300707   -0.0800
31     C31    -8.3640   -1.3665    8.1655 C.ar     1 ZINC000103300707   -0.1500
32     C32    -7.4952   -0.8442    7.2252 C.ar     1 ZINC000103300707   -0.0800
33     C33    -7.6956   -1.0973    5.8820 C.ar     1 ZINC000103300707   -0.1900
34     C34    -6.9053   -1.9598    2.9994 C.ar     1 ZINC000103300707   -0.1300
35     C35    -6.0973   -1.3189    2.0871 C.ar     1 ZINC000103300707   -0.0500
36     C36    -3.9574    3.4759    0.0583 C.ar     1 ZINC000103300707   -0.1200
37     C37    -3.0610    4.1383   -0.7555 C.ar     1 ZINC000103300707   -0.1600
38     C38    -3.0156    3.8609   -2.1134 C.ar     1 ZINC000103300707    0.1400
39     O39    -2.1337    4.5132   -2.9118 O.3      1 ZINC000103300707   -0.4700
40     H40    -5.4716    1.5100   -2.2435 H        1 ZINC000103300707    0.1300
41     H41    -7.2966    1.9452    1.7521 H        1 ZINC000103300707    0.1300
42     H42    -6.2077    3.3532    1.7545 H        1 ZINC000103300707    0.0800
43     H43    -6.5738    5.1893    0.2886 H        1 ZINC000103300707    0.1200
44     H44    -8.0872    6.3623   -1.2596 H        1 ZINC000103300707    0.1200
45     H45    -9.9329    6.4060   -2.6374 H        1 ZINC000103300707    0.0800
46     H46    -9.2561    4.6683   -4.2717 H        1 ZINC000103300707    0.0700
47     H47   -10.6043    3.6379   -3.7344 H        1 ZINC000103300707    0.0600
48     H48   -10.8694    6.4235   -4.9537 H        1 ZINC000103300707    0.0600
49     H49   -11.2043    4.8883   -5.7899 H        1 ZINC000103300707    0.0600
50     H50   -13.2956    5.9115   -4.9366 H        1 ZINC000103300707    0.0600
51     H51   -12.9632    4.3638   -4.1226 H        1 ZINC000103300707    0.0600
52     H52   -12.2919    7.1320   -3.0257 H        1 ZINC000103300707    0.0600
53     H53   -13.6401    6.1015   -2.4883 H        1 ZINC000103300707    0.0600
54     H54   -12.0267    4.3464   -1.8064 H        1 ZINC000103300707    0.0600
55     H55   -11.6919    5.8816   -0.9702 H        1 ZINC000103300707    0.0600
56     H56   -10.4150    2.8128   -1.6737 H        1 ZINC000103300707    0.1200
57     H57    -8.8994    1.6386   -0.1284 H        1 ZINC000103300707    0.1200
58     H58    -8.2056    1.1884    1.1850 H        1 ZINC000103300707    0.1700
59     H59    -9.6410    0.0292    2.8075 H        1 ZINC000103300707    0.1400
60     H60   -10.4858   -2.9936    6.1087 H        1 ZINC000103300707    0.1300
61     H61   -10.1157   -2.5453    8.5005 H        1 ZINC000103300707    0.1300
62     H62    -8.2034   -1.1706    9.2154 H        1 ZINC000103300707    0.1200
63     H63    -6.6568   -0.2413    7.5413 H        1 ZINC000103300707    0.1300
64     H64    -7.0164   -0.6894    5.1480 H        1 ZINC000103300707    0.1300
65     H65    -6.5476   -2.8411    3.5111 H        1 ZINC000103300707    0.1400
66     H66    -5.1052   -1.6950    1.8855 H        1 ZINC000103300707    0.1400
67     H67    -3.9852    3.6937    1.1158 H        1 ZINC000103300707    0.1200
68     H68    -2.3905    4.8720   -0.3330 H        1 ZINC000103300707    0.1200
69     H69    -1.2772    4.0721   -2.9944 H        1 ZINC000103300707    0.3800
@<TRIPOS>BOND
1     1     2     ar
2     2     3     ar
3     2     4     1
4     4     38    ar
5     4     5     ar
6     5     6     ar
7     5     40    1
8     6     7     1
9     6     36    ar
10    7     8     1
11    7     21    am
12    8     9     1
13    8     41    1
14    8     42    1
15    9     20    ar
16    9     10    ar
17    10    11    ar
18    10    43    1
19    11    12    ar
20    11    44    1
21    12    13    1
22    12    19    ar
23    13    18    1
24    13    14    1
25    13    45    1
26    14    15    1
27    14    46    1
28    14    47    1
29    15    16    1
30    15    48    1
31    15    49    1
32    16    17    1
33    16    50    1
34    16    51    1
35    17    18    1
36    17    52    1
37    17    53    1
38    18    54    1
39    18    55    1
40    19    20    ar
41    19    56    1
42    20    57    1
43    21    22    2
44    21    23    1
45    23    35    ar
46    23    24    ar
47    24    25    ar
48    24    58    1
49    25    26    ar
50    25    59    1
51    26    27    1
52    26    34    ar
53    27    28    1
54    28    33    ar
55    28    29    ar
56    29    30    ar
57    29    60    1
58    30    31    ar
59    30    61    1
60    31    32    ar
61    31    62    1
62    32    33    ar
63    32    63    1
64    33    64    1
65    34    35    ar
66    34    65    1
67    35    66    1
68    36    37    ar
69    36    67    1
70    37    38    ar
71    37    68    1
72    38    39    1
73    39    69    1
@<TRIPOS>SUBSTRUCTURE
1   ZINC000103300707 1     RESIDUE    1   A     ZIN   1


@<TRIPOS>MOLECULE
CC1(CC2=CN=C(N=C2C3=C1C(=NN3C)C(=O)NC)NC4=CC=C(C=C4)N5CCN(CC5)C)C
67    71    1     0     0
SMALL
USER_CHARGES
@<TRIPOS>ATOM
1      C1      1.0328    1.2816    0.1852 C.3      1 ZINC000053119602    0.0900
2      N2      1.2207   -0.1608    0.0106 N.am     1 ZINC000053119602   -0.7200
3      C3      0.2474   -0.9038   -0.5525 C.2      1 ZINC000053119602    0.6100
4      O4     -0.7864   -0.3772   -0.9155 O.2      1 ZINC000053119602   -0.5200
5      C5      0.4369   -2.3585   -0.7287 C.2      1 ZINC000053119602    0.0000
6      N6      0.3685   -3.2816    0.2191 N.2      1 ZINC000053119602   -0.2400
7      N7      0.5844   -4.4545   -0.2752 N.pl3    1 ZINC000053119602   -0.2500
8      C8      0.5735   -5.7057    0.4869 C.3      1 ZINC000053119602    0.0900
9      C9      0.8208   -4.3543   -1.5975 C.2      1 ZINC000053119602    0.0300
10     C10     0.7156   -3.0191   -1.9253 C.2      1 ZINC000053119602   -0.1100
11     C11     0.8855   -2.5174   -3.3296 C.3      1 ZINC000053119602    0.0100
12     C12    -0.4646   -2.5495   -4.0487 C.3      1 ZINC000053119602   -0.1400
13     C13     1.4110   -1.0809   -3.2970 C.3      1 ZINC000053119602   -0.1500
14     C14     1.8811   -3.4058   -4.0766 C.3      1 ZINC000053119602   -0.0600
15     C15     1.6189   -4.8679   -3.8619 C.ar     1 ZINC000053119602   -0.2000
16     C16     1.8653   -5.7855   -4.8656 C.ar     1 ZINC000053119602    0.1900
17     N17     1.6500   -7.0713   -4.6315 N.ar     1 ZINC000053119602   -0.5600
18     C18     1.2077   -7.4947   -3.4560 C.ar     1 ZINC000053119602    0.5600
19     N19     1.0150   -8.8514   -3.2547 N.pl3    1 ZINC000053119602   -0.6400
20     C20     1.3949   -9.7673   -4.2444 C.ar     1 ZINC000053119602    0.1700
21     C21     2.4975   -9.5051   -5.0467 C.ar     1 ZINC000053119602   -0.0900
22     C22     2.8717  -10.4075   -6.0224 C.ar     1 ZINC000053119602   -0.1000
23     C23     2.1455  -11.5778   -6.2011 C.ar     1 ZINC000053119602    0.0600
24     N24     2.5250  -12.4927   -7.1897 N.3      1 ZINC000053119602   -0.4800
25     C25     2.5729  -11.8508   -8.5110 C.3      1 ZINC000053119602    0.0300
26     C26     3.0482  -12.8672   -9.5516 C.3      1 ZINC000053119602    0.0000
27     N27     2.1261  -14.0102   -9.5766 N.4      1 ZINC000053119602   -0.3900
28     H28     1.1978  -13.6883   -9.8063 H        1 ZINC000053119602    0.4200
29     C29     2.5728  -14.9773  -10.5881 C.3      1 ZINC000053119602   -0.0500
30     C30     2.1077  -14.6557   -8.2573 C.3      1 ZINC000053119602    0.0000
31     C31     1.6246  -13.6542   -7.2060 C.3      1 ZINC000053119602    0.0200
32     C32     1.0431  -11.8402   -5.3984 C.ar     1 ZINC000053119602   -0.1400
33     C33     0.6721  -10.9401   -4.4192 C.ar     1 ZINC000053119602   -0.1200
34     N34     0.9456   -6.6495   -2.4676 N.ar     1 ZINC000053119602   -0.5500
35     C35     1.1199   -5.3502   -2.6408 C.ar     1 ZINC000053119602    0.3000
36     H36     0.8749    1.7478   -0.7873 H        1 ZINC000053119602    0.0700
37     H37     0.1645    1.4607    0.8193 H        1 ZINC000053119602    0.0600
38     H38     1.9192    1.7094    0.6536 H        1 ZINC000053119602    0.0800
39     H39     2.0456   -0.5810    0.3002 H        1 ZINC000053119602    0.4100
40     H40    -0.4341   -6.1215    0.4882 H        1 ZINC000053119602    0.0900
41     H41     1.2595   -6.4171    0.0271 H        1 ZINC000053119602    0.1000
42     H42     0.8869   -5.5094    1.5122 H        1 ZINC000053119602    0.1000
43     H43    -1.1737   -1.9136   -3.5187 H        1 ZINC000053119602    0.0700
44     H44    -0.3418   -2.1852   -5.0686 H        1 ZINC000053119602    0.0700
45     H45    -0.8402   -3.5725   -4.0710 H        1 ZINC000053119602    0.0500
46     H46     2.3142   -1.0381   -2.6883 H        1 ZINC000053119602    0.0600
47     H47     1.6409   -0.7549   -4.3114 H        1 ZINC000053119602    0.0700
48     H48     0.6524   -0.4261   -2.8681 H        1 ZINC000053119602    0.0700
49     H49     1.8167   -3.1887   -5.1428 H        1 ZINC000053119602    0.0900
50     H50     2.8887   -3.1738   -3.7316 H        1 ZINC000053119602    0.0900
51     H51     2.2284   -5.4582   -5.8287 H        1 ZINC000053119602    0.1800
52     H52     0.6170   -9.1674   -2.4285 H        1 ZINC000053119602    0.4300
53     H53     3.0622   -8.5950   -4.9077 H        1 ZINC000053119602    0.1400
54     H54     3.7288  -10.2032   -6.6468 H        1 ZINC000053119602    0.1300
55     H55     1.5782  -11.4946   -8.7785 H        1 ZINC000053119602    0.0700
56     H56     3.2653  -11.0095   -8.4817 H        1 ZINC000053119602    0.1300
57     H57     3.0709  -12.3970  -10.5347 H        1 ZINC000053119602    0.1400
58     H58     4.0486  -13.2130   -9.2912 H        1 ZINC000053119602    0.1400
59     H59     3.5758  -15.3249  -10.3405 H        1 ZINC000053119602    0.1200
60     H60     1.8887  -15.8257  -10.6069 H        1 ZINC000053119602    0.1200
61     H61     2.5855  -14.4991  -11.5675 H        1 ZINC000053119602    0.1200
62     H62     1.4330  -15.5115   -8.2810 H        1 ZINC000053119602    0.1400
63     H63     3.1128  -14.9924   -8.0036 H        1 ZINC000053119602    0.1400
64     H64     1.6250  -14.1285   -6.2246 H        1 ZINC000053119602    0.1300
65     H65     0.6142  -13.3277   -7.4520 H        1 ZINC000053119602    0.0700
66     H66     0.4783  -12.7502   -5.5373 H        1 ZINC000053119602    0.1300
67     H67    -0.1850  -11.1443   -3.7947 H        1 ZINC000053119602    0.1300
@<TRIPOS>BOND
1     1     2     1
2     1     36    1
3     1     37    1
4     1     38    1
5     2     3     am
6     2     39    1
7     3     4     2
8     3     5     1
9     5     10    1
10    5     6     2
11    6     7     1
12    7     8     1
13    7     9     1
14    8     40    1
15    8     41    1
16    8     42    1
17    9     35    1
18    9     10    2
19    10    11    1
20    11    12    1
21    11    13    1
22    11    14    1
23    12    43    1
24    12    44    1
25    12    45    1
26    13    46    1
27    13    47    1
28    13    48    1
29    14    15    1
30    14    49    1
31    14    50    1
32    15    35    ar
33    15    16    ar
34    16    17    ar
35    16    51    1
36    17    18    ar
37    18    19    1
38    18    34    ar
39    19    20    1
40    19    52    1
41    20    33    ar
42    20    21    ar
43    21    22    ar
44    21    53    1
45    22    23    ar
46    22    54    1
47    23    24    1
48    23    32    ar
49    24    31    1
50    24    25    1
51    25    26    1
52    25    55    1
53    25    56    1
54    26    27    1
55    26    57    1
56    26    58    1
57    27    28    1
58    27    29    1
59    27    30    1
60    29    59    1
61    29    60    1
62    29    61    1
63    30    31    1
64    30    62    1
65    30    63    1
66    31    64    1
67    31    65    1
68    32    33    ar
69    32    66    1
70    33    67    1
71    34    35    ar
@<TRIPOS>SUBSTRUCTURE
1   ZINC000053119602 1     RESIDUE    1   A     ZIN   1


@<TRIPOS>MOLECULE
C1=NC2=C(N=C(N=C2N1C3C(C(C(O3)CO)O)O)F)N
32    34    1     0     0
SMALL
USER_CHARGES
@<TRIPOS>ATOM
1      N1     -0.0167    1.3795    0.0096 N.pl3    1 ZINC000001661187   -0.8100
2      C2      0.0021   -0.0041    0.0020 C.ar     1 ZINC000001661187    0.5400
3      C3     -1.1956   -0.7388    0.0037 C.ar     1 ZINC000001661187   -0.1100
4      N4     -2.5116   -0.4148    0.0116 N.2      1 ZINC000001661187   -0.4500
5      C5     -3.2254   -1.5027    0.0091 C.2      1 ZINC000001661187    0.2600
6      N6     -2.4093   -2.5952   -0.0007 N.pl3    1 ZINC000001661187   -0.4800
7      C7     -2.8367   -3.9965   -0.0062 C.3      1 ZINC000001661187    0.3100
8      H8     -2.1454   -4.5970    0.5852 H        1 ZINC000001661187    0.1500
9      O9     -4.1641   -4.1047    0.5345 O.3      1 ZINC000001661187   -0.3300
10     C10    -5.0798   -4.0398   -0.5799 C.3      1 ZINC000001661187    0.0300
11     H11    -5.2085   -3.0095   -0.9114 H        1 ZINC000001661187    0.1000
12     C12    -6.4291   -4.6560   -0.2051 C.3      1 ZINC000001661187    0.0800
13     O13    -7.0588   -3.8519    0.7945 O.3      1 ZINC000001661187   -0.5600
14     C14    -4.3768   -4.8818   -1.6750 C.3      1 ZINC000001661187    0.0500
15     H15    -4.5482   -5.9466   -1.5170 H        1 ZINC000001661187    0.1000
16     O16    -4.8090   -4.4861   -2.9784 O.3      1 ZINC000001661187   -0.5500
17     C17    -2.8835   -4.5243   -1.4533 C.3      1 ZINC000001661187    0.0800
18     H18    -2.5688   -3.7494   -2.1523 H        1 ZINC000001661187    0.0900
19     O19    -2.0645   -5.6867   -1.5952 O.3      1 ZINC000001661187   -0.5400
20     C20    -1.1146   -2.1414   -0.0043 C.ar     1 ZINC000001661187    0.3400
21     N21     0.0821   -2.7199   -0.0127 N.ar     1 ZINC000001661187   -0.5700
22     C22     1.1808   -1.9904   -0.0135 C.ar     1 ZINC000001661187    0.5700
23     F23     2.3779   -2.6165   -0.0221 F        1 ZINC000001661187   -0.0700
24     N24     1.1533   -0.6679   -0.0125 N.ar     1 ZINC000001661187   -0.6000
25     H25     0.8167    1.8759    0.0043 H        1 ZINC000001661187    0.4200
26     H26    -0.8632    1.8531    0.0162 H        1 ZINC000001661187    0.4200
27     H27    -4.3049   -1.5356    0.0143 H        1 ZINC000001661187    0.2200
28     H28    -7.0657   -4.7017   -1.0887 H        1 ZINC000001661187    0.0700
29     H29    -6.2736   -5.6626    0.1832 H        1 ZINC000001661187    0.0600
30     H30    -7.9208   -4.1837    1.0807 H        1 ZINC000001661187    0.3900
31     H31    -5.7557   -4.6082   -3.1327 H        1 ZINC000001661187    0.3900
32     H32    -2.1051   -6.0917   -2.4723 H        1 ZINC000001661187    0.4000
@<TRIPOS>BOND
1     1     2     1
2     1     25    1
3     1     26    1
4     2     24    ar
5     2     3     ar
6     3     20    ar
7     3     4     1
8     4     5     2
9     5     6     1
10    5     27    1
11    6     7     1
12    6     20    1
13    7     8     1
14    7     17    1
15    7     9     1
16    9     10    1
17    10    11    1
18    10    12    1
19    10    14    1
20    12    13    1
21    12    28    1
22    12    29    1
23    13    30    1
24    14    15    1
25    14    16    1
26    14    17    1
27    16    31    1
28    17    18    1
29    17    19    1
30    19    32    1
31    20    21    ar
32    21    22    ar
33    22    23    1
34    22    24    ar
@<TRIPOS>SUBSTRUCTURE
1   ZINC000001661187 1     RESIDUE    1   A     ZIN   1


@<TRIPOS>MOLECULE
CC1=C(C2=CC=CC=C2N1)CCNCC3=CC=C(C=C3)C=CC(=O)NO
  50   52    0    0    0
SMALL
USER_CHARGES
NO_NAME
@<TRIPOS>ATOM
    1 C1       -0.0184     1.5028     0.0103 C.3    1 <0>      -0.1100
    2 C2        0.0021    -0.0041     0.0020 C.2    1 <0>       0.1100
    3 C3        0.0074    -0.7685    -1.1014 C.2    1 <0>      -0.2000
    4 C4       -0.0058    -0.2834    -2.5281 C.3    1 <0>      -0.0600
    5 C5        1.4321    -0.0990    -3.0174 C.3    1 <0>      -0.0100
    6 N6        1.4193     0.3739    -4.4081 N.4    1 <0>      -0.5100
    7 H7        0.9505    -0.3044    -4.9897 H      1 <0>       0.4300
    8 H8        0.9310     1.2554    -4.4591 H      1 <0>       0.4300
    9 C9        2.7999     0.5509    -4.8779 C.3    1 <0>       0.0500
   10 C10       2.7867     1.0360    -6.3046 C.ar   1 <0>      -0.1600
   11 C11       2.7892     0.1209    -7.3429 C.ar   1 <0>      -0.0900
   12 C12       2.7772     0.5569    -8.6510 C.ar   1 <0>      -0.0900
   13 C13       2.7625     1.9277    -8.9271 C.ar   1 <0>      -0.0300
   14 C14       2.7491     2.4016   -10.3207 C.2    1 <0>      -0.0400
   15 C15       2.7350     3.7238   -10.5830 C.2    1 <0>      -0.1700
   16 C16       2.7217     4.1952   -11.9692 C.2    1 <0>       0.5500
   17 O17       2.7235     3.3933   -12.8846 O.2    1 <0>      -0.5200
   18 N18       2.7076     5.5171   -12.2314 N.am   1 <0>      -0.5900
   19 O19       2.6947     5.9729   -13.5720 O.3    1 <0>      -0.3100
   20 C20       2.7601     2.8460    -7.8725 C.ar   1 <0>      -0.1000
   21 C21       2.7665     2.3942    -6.5697 C.ar   1 <0>      -0.0900
   22 C22       0.0289    -2.1638    -0.6556 C.ar   1 <0>      -0.1000
   23 C23       0.0425    -3.3934    -1.3163 C.ar   1 <0>      -0.0800
   24 C24       0.0617    -4.5523    -0.5924 C.ar   1 <0>      -0.1300
   25 C25       0.0674    -4.5169     0.7950 C.ar   1 <0>      -0.0900
   26 C26       0.0543    -3.3143     1.4674 C.ar   1 <0>      -0.1200
   27 C27       0.0351    -2.1224     0.7508 C.ar   1 <0>       0.1000
   28 N28       0.0239    -0.7954     1.1181 N.pl3  1 <0>      -0.5900
   29 H29       1.0042     1.8801     0.0026 H      1 <0>       0.0800
   30 H30      -0.5455     1.8639    -0.8728 H      1 <0>       0.0900
   31 H31      -0.5286     1.8543     0.9071 H      1 <0>       0.0800
   32 H32      -0.5122    -1.0162    -3.1563 H      1 <0>       0.0900
   33 H33      -0.5332     0.6689    -2.5832 H      1 <0>       0.0900
   34 H34       1.9385     0.6337    -2.3891 H      1 <0>       0.1300
   35 H35       1.9596    -1.0513    -2.9622 H      1 <0>       0.1300
   36 H36       3.3063     1.2836    -4.2496 H      1 <0>       0.1400
   37 H37       3.3273    -0.4014    -4.8227 H      1 <0>       0.1400
   38 H38       2.8009    -0.9374    -7.1280 H      1 <0>       0.1400
   39 H39       2.7795    -0.1583    -9.4602 H      1 <0>       0.1400
   40 H40       2.7507     1.6899   -11.1331 H      1 <0>       0.1500
   41 H41       2.7334     4.4355    -9.7706 H      1 <0>       0.1400
   42 H42       2.7062     6.1563   -11.5018 H      1 <0>       0.4100
   43 H43       2.6851     6.9359   -13.6599 H      1 <0>       0.3900
   44 H44       2.7487     3.9063    -8.0778 H      1 <0>       0.1400
   45 H45       2.7646     3.1022    -5.7541 H      1 <0>       0.1400
   46 H46       0.0374    -3.4286    -2.3957 H      1 <0>       0.1200
   47 H47       0.0721    -5.5034    -1.1041 H      1 <0>       0.1300
   48 H48       0.0818    -5.4414     1.3532 H      1 <0>       0.1300
   49 H49       0.0585    -3.2973     2.5473 H      1 <0>       0.1300
   50 H50       0.0286    -0.4701     2.0319 H      1 <0>       0.4200
@<TRIPOS>BOND
   1    1    2 1
   2    1   29 1
   3    1   30 1
   4    1   31 1
   5    2   28 1
   6    2    3 2
   7    3    4 1
   8    3   22 1
   9    4    5 1
  10    4   32 1
  11    4   33 1
  12    5    6 1
  13    5   34 1
  14    5   35 1
  15    6    7 1
  16    6    8 1
  17    6    9 1
  18    9   10 1
  19    9   36 1
  20    9   37 1
  21   10   21 ar
  22   10   11 ar
  23   11   12 ar
  24   11   38 1
  25   12   13 ar
  26   12   39 1
  27   13   14 1
  28   13   20 ar
  29   14   15 2
  30   14   40 1
  31   15   16 1
  32   15   41 1
  33   16   17 2
  34   16   18 am
  35   18   19 1
  36   18   42 1
  37   19   43 1
  38   20   21 ar
  39   20   44 1
  40   21   45 1
  41   22   27 ar
  42   22   23 ar
  43   23   24 ar
  44   23   46 1
  45   24   25 ar
  46   24   47 1
  47   25   26 ar
  48   25   48 1
  49   26   27 ar
  50   26   49 1
  51   27   28 1
  52   28   50 1


@<TRIPOS>MOLECULE
O=C(NO)CCCCCCC(NC1=CC=CC=C1)=O
  39   39    0    0    0
SMALL
USER_CHARGES
NO_NAME
@<TRIPOS>ATOM
    1 O1        0.0025    -0.0051     0.0315 O.2    1 <0>      -0.5200
    2 C2       -0.0142     1.2076     0.0300 C.2    1 <0>       0.5200
    3 C3        1.2804     1.9790     0.0134 C.3    1 <0>      -0.1300
    4 C4        2.4567     1.0008     0.0006 C.3    1 <0>      -0.1100
    5 C5        3.7710     1.7838    -0.0163 C.3    1 <0>      -0.1200
    6 C6        4.9474     0.8057    -0.0291 C.3    1 <0>      -0.1200
    7 C7        6.2617     1.5887    -0.0460 C.3    1 <0>      -0.1100
    8 C8        7.4381     0.6106    -0.0588 C.3    1 <0>      -0.1400
    9 C9        8.7326     1.3819    -0.0754 C.2    1 <0>       0.5100
   10 O10       8.7160     2.5946    -0.0769 O.2    1 <0>      -0.5200
   11 N11       9.9089     0.7241    -0.0887 N.am   1 <0>      -0.6800
   12 C12      11.1077     1.4367    -0.2019 C.ar   1 <0>       0.1400
   13 C13      12.1712     0.9004    -0.9161 C.ar   1 <0>      -0.1500
   14 C14      13.3532     1.6062    -1.0260 C.ar   1 <0>      -0.1000
   15 C15      13.4786     2.8455    -0.4254 C.ar   1 <0>      -0.1300
   16 C16      12.4217     3.3820     0.2869 C.ar   1 <0>      -0.1000
   17 C17      11.2348     2.6841     0.3949 C.ar   1 <0>      -0.1200
   18 N18      -1.1905     1.8654     0.0376 N.am   1 <0>      -0.6000
   19 O19      -2.4069     1.1407     0.0474 O.3    1 <0>      -0.3200
   20 H20       1.3188     2.6051    -0.8780 H      1 <0>       0.1000
   21 H21       1.3402     2.6076     0.9018 H      1 <0>       0.1000
   22 H22       2.4183     0.3746     0.8920 H      1 <0>       0.0700
   23 H23       2.3969     0.3721    -0.8879 H      1 <0>       0.0700
   24 H24       3.8094     2.4100    -0.9077 H      1 <0>       0.0700
   25 H25       3.8309     2.4125     0.8722 H      1 <0>       0.0700
   26 H26       4.9090     0.1795     0.8623 H      1 <0>       0.0700
   27 H27       4.8876     0.1770    -0.9176 H      1 <0>       0.0700
   28 H28       6.3001     2.2149    -0.9374 H      1 <0>       0.0700
   29 H29       6.3215     2.2174     0.8425 H      1 <0>       0.0700
   30 H30       7.3997    -0.0156     0.8326 H      1 <0>       0.1000
   31 H31       7.3782    -0.0181    -0.9473 H      1 <0>       0.1000
   32 H32       9.9243    -0.2434    -0.0197 H      1 <0>       0.4100
   33 H33      12.0741    -0.0677    -1.3849 H      1 <0>       0.1200
   34 H34      14.1806     1.1897    -1.5813 H      1 <0>       0.1300
   35 H35      14.4041     3.3953    -0.5125 H      1 <0>       0.1200
   36 H36      12.5230     4.3498     0.7554 H      1 <0>       0.1300
   37 H37      10.4097     3.1037     0.9513 H      1 <0>       0.1400
   38 H38      -1.2038     2.8353     0.0365 H      1 <0>       0.4100
   39 H39      -3.1970     1.6983     0.0524 H      1 <0>       0.3900
@<TRIPOS>BOND
   1    1    2 2
   2    2    3 1
   3    2   18 am
   4    3    4 1
   5    3   20 1
   6    3   21 1
   7    4    5 1
   8    4   22 1
   9    4   23 1
  10    5    6 1
  11    5   24 1
  12    5   25 1
  13    6    7 1
  14    6   26 1
  15    6   27 1
  16    7    8 1
  17    7   28 1
  18    7   29 1
  19    8    9 1
  20    8   30 1
  21    8   31 1
  22    9   10 2
  23    9   11 am
  24   11   12 1
  25   11   32 1
  26   12   17 ar
  27   12   13 ar
  28   13   14 ar
  29   13   33 1
  30   14   15 ar
  31   14   34 1
  32   15   16 ar
  33   15   35 1
  34   16   17 ar
  35   16   36 1
  36   17   37 1
  37   18   19 1
  38   18   38 1
  39   19   39 1


@<TRIPOS>MOLECULE
CN(C)C1=CC=C(C([C@H](C)/C=C(C)/C=C/C(NO)=O)=O)C=C1
  44   44    0    0    0
SMALL
USER_CHARGES
NO_NAME
@<TRIPOS>ATOM
    1 C1        0.5666     1.9153    -0.9484 C.3    1 <0>      -0.1000
    2 C2        0.2623     0.5420    -0.4076 C.2    1 <0>      -0.0900
    3 C3        0.2840     0.3233     0.9082 C.2    1 <0>      -0.1300
    4 C4        0.4917     1.4733     1.8598 C.3    1 <0>      -0.1000
    5 H5        0.6973     2.3813     1.2930 H      1 <0>       0.1000
    6 C6        1.6757     1.1669     2.7792 C.3    1 <0>      -0.1400
    7 C7       -0.7509     1.6695     2.6895 C.2    1 <0>       0.4200
    8 O8       -1.4611     0.7216     2.9518 O.2    1 <0>      -0.4600
    9 C9       -1.1019     3.0073     3.1802 C.ar   1 <0>      -0.2300
   10 C10      -0.2862     4.1044     2.8737 C.ar   1 <0>      -0.0200
   11 C11      -0.6164     5.3474     3.3324 C.ar   1 <0>      -0.2100
   12 C12      -1.7625     5.5256     4.1041 C.ar   1 <0>       0.2500
   13 N13      -2.0947     6.7916     4.5685 N.pl3  1 <0>      -0.6300
   14 C14      -1.2403     7.9374     4.2468 C.3    1 <0>       0.0900
   15 C15      -3.2995     6.9814     5.3802 C.3    1 <0>       0.0900
   16 C16      -2.5767     4.4375     4.4108 C.ar   1 <0>      -0.2100
   17 C17      -2.2568     3.1920     3.9518 C.ar   1 <0>      -0.0100
   18 C18      -0.0571    -0.5517    -1.3260 C.2    1 <0>      -0.0100
   19 C19      -1.1862    -0.5038    -2.0675 C.2    1 <0>      -0.2100
   20 C20      -2.1553     0.5711    -1.8555 C.2    1 <0>       0.5500
   21 O21      -1.9991     1.3598    -0.9417 O.2    1 <0>      -0.5000
   22 N22      -3.2211     0.6882    -2.6720 N.am   1 <0>      -0.6000
   23 O23      -4.1592     1.7288    -2.4668 O.3    1 <0>      -0.3200
   24 H24       1.5627     2.2198    -0.6271 H      1 <0>       0.0600
   25 H25       0.5267     1.8941    -2.0374 H      1 <0>       0.0500
   26 H26      -0.1696     2.6255    -0.5717 H      1 <0>       0.0800
   27 H27       0.1527    -0.6778     1.2915 H      1 <0>       0.1200
   28 H28       2.5745     1.0250     2.1791 H      1 <0>       0.0700
   29 H29       1.8260     1.9987     3.4675 H      1 <0>       0.0600
   30 H30       1.4701     0.2589     3.3460 H      1 <0>       0.0600
   31 H31       0.6027     3.9671     2.2758 H      1 <0>       0.1300
   32 H32       0.0120     6.1936     3.0969 H      1 <0>       0.1300
   33 H33      -1.1880     8.0591     3.1649 H      1 <0>       0.0600
   34 H34      -1.6582     8.8392     4.6941 H      1 <0>       0.0800
   35 H35      -0.2390     7.7662     4.6420 H      1 <0>       0.0600
   36 H36      -3.0503     6.8593     6.4343 H      1 <0>       0.0500
   37 H37      -3.6954     7.9832     5.2140 H      1 <0>       0.0700
   38 H38      -4.0490     6.2428     5.0961 H      1 <0>       0.0700
   39 H39      -3.4643     4.5800     5.0094 H      1 <0>       0.1300
   40 H40      -2.8885     2.3490     4.1901 H      1 <0>       0.1300
   41 H41       0.6094    -1.3973    -1.4112 H      1 <0>       0.1400
   42 H42      -1.3729    -1.2591    -2.8165 H      1 <0>       0.1400
   43 H43      -3.3456     0.0597    -3.4003 H      1 <0>       0.4100
   44 H44      -4.8886     1.7317    -3.1017 H      1 <0>       0.3900
@<TRIPOS>BOND
   1    1    2 1
   2    1   24 1
   3    1   25 1
   4    1   26 1
   5    2    3 2
   6    2   18 1
   7    3    4 1
   8    3   27 1
   9    4    5 1
  10    4    6 1
  11    4    7 1
  12    6   28 1
  13    6   29 1
  14    6   30 1
  15    7    8 2
  16    7    9 1
  17    9   17 ar
  18    9   10 ar
  19   10   11 ar
  20   10   31 1
  21   11   12 ar
  22   11   32 1
  23   12   13 1
  24   12   16 ar
  25   13   14 1
  26   13   15 1
  27   14   33 1
  28   14   34 1
  29   14   35 1
  30   15   36 1
  31   15   37 1
  32   15   38 1
  33   16   17 ar
  34   16   39 1
  35   17   40 1
  36   18   19 2
  37   18   41 1
  38   19   20 1
  39   19   42 1
  40   20   21 2
  41   20   22 am
  42   22   23 1
  43   22   43 1
  44   23   44 1


@<TRIPOS>MOLECULE
CCCC(C(O)=O)CCC
25    24    1     0     0
SMALL
USER_CHARGES
@<TRIPOS>ATOM
1      C1     -0.0187    1.5258    0.0104 C.3      1 ZINC000003008621   -0.1500
2      C2      0.0021   -0.0041    0.0020 C.3      1 ZINC000003008621   -0.1200
3      C3     -1.4333   -0.5336    0.0129 C.3      1 ZINC000003008621   -0.0900
4      C4     -1.4126   -2.0635    0.0045 C.3      1 ZINC000003008621   -0.1600
5      C5     -2.8413   -2.5937    0.1410 C.3      1 ZINC000003008621   -0.0900
6      C6     -2.8102   -4.1189    0.2579 C.3      1 ZINC000003008621   -0.1200
7      C7     -4.2389   -4.6491    0.3944 C.3      1 ZINC000003008621   -0.1500
8      C8     -0.8177   -2.5507   -1.2916 C.2      1 ZINC000003008621    0.5000
9      O9      0.1892   -3.2381   -1.2799 O.co2    1 ZINC000003008621   -0.7100
10     O10    -1.3432   -2.2574   -2.3519 O.co2    1 ZINC000003008621   -0.7000
11     H11     1.0039    1.9031    0.0027 H        1 ZINC000003008621    0.0500
12     H12    -0.5459    1.8868   -0.8726 H        1 ZINC000003008621    0.0500
13     H13    -0.5289    1.8773    0.9072 H        1 ZINC000003008621    0.0500
14     H14     0.5123   -0.3556   -0.8948 H        1 ZINC000003008621    0.0700
15     H15     0.5293   -0.3651    0.8851 H        1 ZINC000003008621    0.0500
16     H16    -1.9435   -0.1821    0.9097 H        1 ZINC000003008621    0.0400
17     H17    -1.9605   -0.1726   -0.8702 H        1 ZINC000003008621    0.0600
18     H18    -0.8102   -2.4233    0.8386 H        1 ZINC000003008621    0.0600
19     H19    -3.3022   -2.1702    1.0333 H        1 ZINC000003008621    0.0400
20     H20    -3.4202   -2.3083   -0.7374 H        1 ZINC000003008621    0.0600
21     H21    -2.3493   -4.5424   -0.6344 H        1 ZINC000003008621    0.0700
22     H22    -2.2313   -4.4042    1.1363 H        1 ZINC000003008621    0.0500
23     H23    -4.2168   -5.7356    0.4777 H        1 ZINC000003008621    0.0500
24     H24    -4.6999   -4.2256    1.2868 H        1 ZINC000003008621    0.0500
25     H25    -4.8179   -4.3637   -0.4839 H        1 ZINC000003008621    0.0500
@<TRIPOS>BOND
1     1     2     1
2     1     11    1
3     1     12    1
4     1     13    1
5     2     3     1
6     2     14    1
7     2     15    1
8     3     4     1
9     3     16    1
10    3     17    1
11    4     5     1
12    4     8     1
13    4     18    1
14    5     6     1
15    5     19    1
16    5     20    1
17    6     7     1
18    6     21    1
19    6     22    1
20    7     23    1
21    7     24    1
22    7     25    1
23    8     9     ar
24    8     10    ar
@<TRIPOS>SUBSTRUCTURE
1   ZINC000003008621 1     RESIDUE    1   A     ZIN   1


@<TRIPOS>MOLECULE
NC1=C(NC(C2=CC=C(CNC(OCC3=CC=CN=C3)=O)C=C2)=O)C=CC=C1
  48   50    0    0    0
SMALL
USER_CHARGES
NO_NAME
@<TRIPOS>ATOM
    1 N1        0.1458     1.1016     1.2035 N.pl3  1 <0>      -0.8800
    2 C2        0.0844    -0.1522     0.5861 C.ar   1 <0>       0.2000
    3 C3       -1.1058    -0.8638     0.5737 C.ar   1 <0>      -0.1800
    4 C4       -1.1641    -2.1028    -0.0371 C.ar   1 <0>      -0.0800
    5 C5       -0.0382    -2.6364    -0.6362 C.ar   1 <0>      -0.1600
    6 C6        1.1529    -1.9341    -0.6283 C.ar   1 <0>      -0.0700
    7 C7        1.2189    -0.6880    -0.0240 C.ar   1 <0>       0.0600
    8 N8        2.4244     0.0254    -0.0152 N.am   1 <0>      -0.6600
    9 C9        3.5963    -0.6329     0.0839 C.2    1 <0>       0.5600
   10 O10       3.6126    -1.8485     0.0834 O.2    1 <0>      -0.5100
   11 C11       4.8617     0.1232     0.1933 C.ar   1 <0>      -0.1200
   12 C12       4.8460     1.5190     0.2000 C.ar   1 <0>      -0.0900
   13 C13       6.0307     2.2185     0.3023 C.ar   1 <0>      -0.1000
   14 C14       7.2325     1.5397     0.3981 C.ar   1 <0>      -0.0900
   15 C15       8.5226     2.3105     0.5100 C.3    1 <0>       0.1800
   16 N16       8.8262     2.5520     1.9227 N.am   1 <0>      -0.7100
   17 C17       9.9401     3.2283     2.2666 C.2    1 <0>       0.6500
   18 O18      10.6926     3.6377     1.4049 O.2    1 <0>      -0.5700
   19 O19      10.2191     3.4502     3.5649 O.3    1 <0>      -0.3700
   20 C20      11.4356     4.1853     3.8614 C.3    1 <0>       0.1400
   21 C21      11.5804     4.3359     5.3539 C.ar   1 <0>      -0.1600
   22 C22      11.0330     5.4303     6.0053 C.ar   1 <0>      -0.0500
   23 C23      11.1906     5.5272     7.3796 C.ar   1 <0>      -0.1800
   24 C24      11.8831     4.5366     8.0494 C.ar   1 <0>       0.1100
   25 N25      12.3907     3.5091     7.3968 N.ar   1 <0>      -0.4900
   26 C26      12.2558     3.3816     6.0913 C.ar   1 <0>       0.1300
   27 C27       7.2551     0.1563     0.3920 C.ar   1 <0>      -0.1000
   28 C28       6.0772    -0.5555     0.2961 C.ar   1 <0>      -0.0600
   29 H29       0.9780     1.5999     1.2079 H      1 <0>       0.3900
   30 H30      -0.6450     1.4745     1.6237 H      1 <0>       0.4000
   31 H31      -1.9871    -0.4503     1.0414 H      1 <0>       0.1200
   32 H32      -2.0918    -2.6557    -0.0459 H      1 <0>       0.1200
   33 H33      -0.0891    -3.6048    -1.1116 H      1 <0>       0.1200
   34 H34       2.0306    -2.3544    -1.0967 H      1 <0>       0.1400
   35 H35       2.4157     0.9931    -0.0804 H      1 <0>       0.4000
   36 H36       3.9086     2.0500     0.1249 H      1 <0>       0.1300
   37 H37       6.0200     3.2985     0.3072 H      1 <0>       0.1300
   38 H38       9.3302     1.7347     0.0581 H      1 <0>       0.0900
   39 H39       8.4221     3.2642    -0.0082 H      1 <0>       0.0900
   40 H40       8.2255     2.2251     2.6106 H      1 <0>       0.4100
   41 H41      12.2939     3.6420     3.4661 H      1 <0>       0.0900
   42 H42      11.3858     5.1715     3.3999 H      1 <0>       0.0800
   43 H43      10.4968     6.1897     5.4554 H      1 <0>       0.1400
   44 H44      10.7776     6.3664     7.9196 H      1 <0>       0.1400
   45 H45      12.0105     4.6048     9.1197 H      1 <0>       0.1600
   46 H46      12.6854     2.5261     5.5914 H      1 <0>       0.1600
   47 H47       8.1966    -0.3676     0.4668 H      1 <0>       0.1400
   48 H48       6.0962    -1.6353     0.2918 H      1 <0>       0.1400
@<TRIPOS>BOND
   1    1    2 1
   2    1   29 1
   3    1   30 1
   4    2    7 ar
   5    2    3 ar
   6    3    4 ar
   7    3   31 1
   8    4    5 ar
   9    4   32 1
  10    5    6 ar
  11    5   33 1
  12    6    7 ar
  13    6   34 1
  14    7    8 1
  15    8    9 am
  16    8   35 1
  17    9   10 2
  18    9   11 1
  19   11   28 ar
  20   11   12 ar
  21   12   13 ar
  22   12   36 1
  23   13   14 ar
  24   13   37 1
  25   14   15 1
  26   14   27 ar
  27   15   16 1
  28   15   38 1
  29   15   39 1
  30   16   17 am
  31   16   40 1
  32   17   18 2
  33   17   19 1
  34   19   20 1
  35   20   21 1
  36   20   41 1
  37   20   42 1
  38   21   26 ar
  39   21   22 ar
  40   22   23 ar
  41   22   43 1
  42   23   24 ar
  43   23   44 1
  44   24   25 ar
  45   24   45 1
  46   25   26 ar
  47   26   46 1
  48   27   28 ar
  49   27   47 1
  50   28   48 1


@<TRIPOS>MOLECULE
O=C(CCCCCC(NC2=CC=CC=C2N)=O)NC1=CC=CC=C1
47    48    1     0     0
SMALL
USER_CHARGES
@<TRIPOS>ATOM
1      N1      0.1527    1.1240    1.2300 N.pl3    1 ZINC000029054251   -0.8800
2      C2      0.0851   -0.1463    0.6478 C.ar     1 ZINC000029054251    0.1900
3      C3     -1.1059   -0.8565    0.6647 C.ar     1 ZINC000029054251   -0.1800
4      C4     -1.1705   -2.1116    0.0883 C.ar     1 ZINC000029054251   -0.0800
5      C5     -0.0504   -2.6622   -0.5060 C.ar     1 ZINC000029054251   -0.1600
6      C6      1.1414   -1.9613   -0.5270 C.ar     1 ZINC000029054251   -0.0700
7      C7      1.2139   -0.6999    0.0434 C.ar     1 ZINC000029054251    0.0600
8      N8      2.4207    0.0125    0.0227 N.am     1 ZINC000029054251   -0.6700
9      C9      3.5927   -0.6441    0.1310 C.2      1 ZINC000029054251    0.5100
10     O10     3.6081   -1.8566    0.1615 O.2      1 ZINC000029054251   -0.5200
11     C11     4.8841    0.1282    0.2144 C.3      1 ZINC000029054251   -0.1400
12     C12     6.0560   -0.8486    0.3304 C.3      1 ZINC000029054251   -0.1100
13     C13     7.3671   -0.0646    0.4150 C.3      1 ZINC000029054251   -0.1200
14     C14     8.5389   -1.0414    0.5310 C.3      1 ZINC000029054251   -0.1100
15     C15     9.8500   -0.2573    0.6156 C.3      1 ZINC000029054251   -0.1400
16     C16    11.0042   -1.2195    0.7299 C.2      1 ZINC000029054251    0.5100
17     O17    10.7984   -2.4147    0.7425 O.2      1 ZINC000029054251   -0.5100
18     N18    12.2652   -0.7518    0.8182 N.am     1 ZINC000029054251   -0.6800
19     C19    13.3444   -1.6423    0.8014 C.ar     1 ZINC000029054251    0.1500
20     C20    14.5425   -1.2951    1.4119 C.ar     1 ZINC000029054251   -0.1500
21     C21    15.6059   -2.1763    1.3936 C.ar     1 ZINC000029054251   -0.1000
22     C22    15.4786   -3.4028    0.7679 C.ar     1 ZINC000029054251   -0.1400
23     C23    14.2871   -3.7513    0.1587 C.ar     1 ZINC000029054251   -0.1000
24     C24    13.2179   -2.8774    0.1793 C.ar     1 ZINC000029054251   -0.1300
25     H25     0.9855    1.6212    1.2137 H        1 ZINC000029054251    0.3900
26     H26    -0.6341    1.5092    1.6463 H        1 ZINC000029054251    0.4000
27     H27    -1.9828   -0.4294    1.1285 H        1 ZINC000029054251    0.1200
28     H28    -2.0987   -2.6635    0.1027 H        1 ZINC000029054251    0.1200
29     H29    -0.1062   -3.6429   -0.9548 H        1 ZINC000029054251    0.1200
30     H30     2.0147   -2.3948   -0.9916 H        1 ZINC000029054251    0.1400
31     H31     2.4124    0.9780   -0.0696 H        1 ZINC000029054251    0.4000
32     H32     5.0037    0.7341   -0.6838 H        1 ZINC000029054251    0.1000
33     H33     4.8637    0.7769    1.0901 H        1 ZINC000029054251    0.1000
34     H34     5.9364   -1.4545    1.2286 H        1 ZINC000029054251    0.0700
35     H35     6.0764   -1.4973   -0.5454 H        1 ZINC000029054251    0.0700
36     H36     7.4867    0.5413   -0.4832 H        1 ZINC000029054251    0.0600
37     H37     7.3467    0.5841    1.2908 H        1 ZINC000029054251    0.0600
38     H38     8.4193   -1.6473    1.4292 H        1 ZINC000029054251    0.0700
39     H39     8.5593   -1.6900   -0.3447 H        1 ZINC000029054251    0.0700
40     H40     9.9696    0.3485   -0.2825 H        1 ZINC000029054251    0.1000
41     H41     9.8296    0.3913    1.4914 H        1 ZINC000029054251    0.1000
42     H42    12.4245    0.2020    0.8933 H        1 ZINC000029054251    0.4100
43     H43    14.6427   -0.3370    1.9001 H        1 ZINC000029054251    0.1200
44     H44    16.5379   -1.9069    1.8681 H        1 ZINC000029054251    0.1300
45     H45    16.3118   -4.0900    0.7546 H        1 ZINC000029054251    0.1200
46     H46    14.1911   -4.7098   -0.3297 H        1 ZINC000029054251    0.1300
47     H47    12.2875   -3.1501   -0.2967 H        1 ZINC000029054251    0.1400
@<TRIPOS>BOND
1     1     2     1
2     1     25    1
3     1     26    1
4     2     7     ar
5     2     3     ar
6     3     4     ar
7     3     27    1
8     4     5     ar
9     4     28    1
10    5     6     ar
11    5     29    1
12    6     7     ar
13    6     30    1
14    7     8     1
15    8     9     am
16    8     31    1
17    9     10    2
18    9     11    1
19    11    12    1
20    11    32    1
21    11    33    1
22    12    13    1
23    12    34    1
24    12    35    1
25    13    14    1
26    13    36    1
27    13    37    1
28    14    15    1
29    14    38    1
30    14    39    1
31    15    16    1
32    15    40    1
33    15    41    1
34    16    17    2
35    16    18    am
36    18    19    1
37    18    42    1
38    19    24    ar
39    19    20    ar
40    20    21    ar
41    20    43    1
42    21    22    ar
43    21    44    1
44    22    23    ar
45    22    45    1
46    23    24    ar
47    23    46    1
48    24    47    1
@<TRIPOS>SUBSTRUCTURE
1   ZINC000029054251 1     RESIDUE    1   A     ZIN   1


@<TRIPOS>MOLECULE
C=C(CN2CC3=CC=C(C(NC4=CC=CC=C4N)=O)C=C3)C1=CC=CC=C1C2=O
50    53    1     0     0
SMALL
USER_CHARGES
@<TRIPOS>ATOM
1      C1     -0.0490    1.3285    0.0741 C.2      1 ZINC000147419870   -0.1400
2      C2     -0.0277    0.0014    0.0620 C.2      1 ZINC000147419870   -0.1200
3      C3     -1.3073   -0.8062    0.0518 C.3      1 ZINC000147419870    0.1500
4      N4     -1.1825   -1.9491    0.9538 N.am     1 ZINC000147419870   -0.6000
5      C5     -2.3851   -2.4494    1.6244 C.3      1 ZINC000147419870    0.1500
6      C6     -3.0358   -3.5046    0.7676 C.ar     1 ZINC000147419870   -0.0800
7      C7     -3.9842   -3.1406   -0.1718 C.ar     1 ZINC000147419870   -0.1100
8      C8     -4.5837   -4.1016   -0.9593 C.ar     1 ZINC000147419870   -0.0600
9      C9     -4.2316   -5.4437   -0.8068 C.ar     1 ZINC000147419870   -0.1300
10     C10    -4.8696   -6.4786   -1.6475 C.2      1 ZINC000147419870    0.5600
11     O11    -5.7029   -6.1618   -2.4741 O.2      1 ZINC000147419870   -0.5100
12     N12    -4.5274   -7.7736   -1.4978 N.am     1 ZINC000147419870   -0.6600
13     C13    -5.2126   -8.7660   -2.2105 C.ar     1 ZINC000147419870    0.0700
14     C14    -6.5094   -8.5396   -2.6456 C.ar     1 ZINC000147419870   -0.0800
15     C15    -7.1838   -9.5206   -3.3489 C.ar     1 ZINC000147419870   -0.1600
16     C16    -6.5689  -10.7285   -3.6210 C.ar     1 ZINC000147419870   -0.0900
17     C17    -5.2757  -10.9629   -3.1915 C.ar     1 ZINC000147419870   -0.1800
18     C18    -4.5900   -9.9830   -2.4897 C.ar     1 ZINC000147419870    0.1900
19     N19    -3.2815  -10.2178   -2.0541 N.pl3    1 ZINC000147419870   -0.8800
20     C20    -3.2741   -5.8041    0.1428 C.ar     1 ZINC000147419870   -0.0900
21     C21    -2.6781   -4.8325    0.9200 C.ar     1 ZINC000147419870   -0.1000
22     C22    -0.0099   -2.5603    1.1930 C.2      1 ZINC000147419870    0.5700
23     O23     0.0155   -3.5560    1.8904 O.2      1 ZINC000147419870   -0.5300
24     C24     1.2455   -2.0412    0.6229 C.ar     1 ZINC000147419870   -0.1300
25     C25     2.4187   -2.7873    0.6291 C.ar     1 ZINC000147419870   -0.0500
26     C26     3.5718   -2.2501    0.0898 C.ar     1 ZINC000147419870   -0.1300
27     C27     3.5719   -0.9773   -0.4565 C.ar     1 ZINC000147419870   -0.0900
28     C28     2.4139   -0.2210   -0.4755 C.ar     1 ZINC000147419870   -0.1200
29     C29     1.2477   -0.7472    0.0518 C.ar     1 ZINC000147419870   -0.0200
30     H30     0.8775    1.8835    0.0767 H        1 ZINC000147419870    0.1100
31     H31    -0.9929    1.8534    0.0769 H        1 ZINC000147419870    0.1100
32     H32    -2.1352   -0.1766    0.3778 H        1 ZINC000147419870    0.0900
33     H33    -1.5021   -1.1629   -0.9596 H        1 ZINC000147419870    0.0800
34     H34    -2.1113   -2.8810    2.5871 H        1 ZINC000147419870    0.1000
35     H35    -3.0830   -1.6267    1.7803 H        1 ZINC000147419870    0.0900
36     H36    -4.2560   -2.1019   -0.2885 H        1 ZINC000147419870    0.1300
37     H37    -5.3241   -3.8162   -1.6920 H        1 ZINC000147419870    0.1400
38     H38    -3.8067   -8.0184   -0.8966 H        1 ZINC000147419870    0.4000
39     H39    -6.9929   -7.5972   -2.4348 H        1 ZINC000147419870    0.1400
40     H40    -8.1942   -9.3428   -3.6864 H        1 ZINC000147419870    0.1200
41     H41    -7.1004  -11.4914   -4.1705 H        1 ZINC000147419870    0.1200
42     H42    -4.7985  -11.9078   -3.4055 H        1 ZINC000147419870    0.1200
43     H43    -2.8525  -11.0671   -2.2429 H        1 ZINC000147419870    0.4000
44     H44    -2.8031   -9.5314   -1.5633 H        1 ZINC000147419870    0.3900
45     H45    -2.9975   -6.8408    0.2660 H        1 ZINC000147419870    0.1200
46     H46    -1.9372   -5.1100    1.6551 H        1 ZINC000147419870    0.1400
47     H47     2.4287   -3.7805    1.0532 H        1 ZINC000147419870    0.1400
48     H48     4.4835   -2.8291    0.0947 H        1 ZINC000147419870    0.1300
49     H49     4.4833   -0.5720   -0.8706 H        1 ZINC000147419870    0.1300
50     H50     2.4182    0.7708   -0.9029 H        1 ZINC000147419870    0.1300
@<TRIPOS>BOND
1     1     2     2
2     1     30    1
3     1     31    1
4     2     29    1
5     2     3     1
6     3     4     1
7     3     32    1
8     3     33    1
9     4     5     1
10    4     22    am
11    5     6     1
12    5     34    1
13    5     35    1
14    6     21    ar
15    6     7     ar
16    7     8     ar
17    7     36    1
18    8     9     ar
19    8     37    1
20    9     10    1
21    9     20    ar
22    10    11    2
23    10    12    am
24    12    13    1
25    12    38    1
26    13    18    ar
27    13    14    ar
28    14    15    ar
29    14    39    1
30    15    16    ar
31    15    40    1
32    16    17    ar
33    16    41    1
34    17    18    ar
35    17    42    1
36    18    19    1
37    19    43    1
38    19    44    1
39    20    21    ar
40    20    45    1
41    21    46    1
42    22    23    2
43    22    24    1
44    24    29    ar
45    24    25    ar
46    25    26    ar
47    25    47    1
48    26    27    ar
49    26    48    1
50    27    28    ar
51    27    49    1
52    28    29    ar
53    28    50    1
@<TRIPOS>SUBSTRUCTURE
1   ZINC000147419870 1     RESIDUE    1   A     ZIN   1


@<TRIPOS>MOLECULE
O=C(NC2=CC=CC=C2N)C1=CN=CC=N1
26    27    1     0     0
SMALL
USER_CHARGES
@<TRIPOS>ATOM
1      N1      0.1458    1.1012    1.2038 N.pl3    1 ZINC000037116434   -0.8800
2      C2      0.0844   -0.1524    0.5861 C.ar     1 ZINC000037116434    0.2000
3      C3     -1.1058   -0.8640    0.5735 C.ar     1 ZINC000037116434   -0.1800
4      C4     -1.1640   -2.1029   -0.0376 C.ar     1 ZINC000037116434   -0.0800
5      C5     -0.0383   -2.6361   -0.6373 C.ar     1 ZINC000037116434   -0.1600
6      C6      1.1528   -1.9339   -0.6292 C.ar     1 ZINC000037116434   -0.0700
7      C7      1.2190   -0.6881   -0.0242 C.ar     1 ZINC000037116434    0.0600
8      N8      2.4243    0.0252   -0.0152 N.am     1 ZINC000037116434   -0.6500
9      C9      3.5962   -0.6332    0.0835 C.2      1 ZINC000037116434    0.5800
10     O10     3.6124   -1.8485    0.0825 O.2      1 ZINC000037116434   -0.5100
11     C11     4.8641    0.1243    0.1931 C.ar     1 ZINC000037116434    0.0200
12     C12     6.0781   -0.5546    0.2895 C.ar     1 ZINC000037116434    0.1200
13     N13     7.2064    0.1254    0.3871 N.ar     1 ZINC000037116434   -0.4400
14     C14     7.1848    1.4464    0.3934 C.ar     1 ZINC000037116434    0.0800
15     C15     5.9783    2.1252    0.2976 C.ar     1 ZINC000037116434    0.0500
16     N16     4.8486    1.4547    0.1943 N.ar     1 ZINC000037116434   -0.4200
17     H17     0.9780    1.5994    1.2083 H        1 ZINC000037116434    0.3900
18     H18    -0.6450    1.4740    1.6242 H        1 ZINC000037116434    0.4000
19     H19    -1.9871   -0.4506    1.0413 H        1 ZINC000037116434    0.1300
20     H20    -2.0917   -2.6559   -0.0462 H        1 ZINC000037116434    0.1200
21     H21    -0.0893   -3.6042   -1.1133 H        1 ZINC000037116434    0.1200
22     H22     2.0303   -2.3537   -1.0984 H        1 ZINC000037116434    0.1400
23     H23     2.4156    0.9929   -0.0799 H        1 ZINC000037116434    0.4100
24     H24     6.0959   -1.6345    0.2848 H        1 ZINC000037116434    0.1900
25     H25     8.1089    1.9995    0.4736 H        1 ZINC000037116434    0.1800
26     H26     5.9655    3.2051    0.3031 H        1 ZINC000037116434    0.1800
@<TRIPOS>BOND
1     1     2     1
2     1     17    1
3     1     18    1
4     2     7     ar
5     2     3     ar
6     3     4     ar
7     3     19    1
8     4     5     ar
9     4     20    1
10    5     6     ar
11    5     21    1
12    6     7     ar
13    6     22    1
14    7     8     1
15    8     9     am
16    8     23    1
17    9     10    2
18    9     11    1
19    11    16    ar
20    11    12    ar
21    12    13    ar
22    12    24    1
23    13    14    ar
24    14    15    ar
25    14    25    1
26    15    16    ar
27    15    26    1
@<TRIPOS>SUBSTRUCTURE
1   ZINC000037116434 1     RESIDUE    1   A     ZIN   1


@<TRIPOS>MOLECULE
CN1CCN(C2=NC(SC3=CC=C(NC(C4CC4)=O)C=C3)=NC(NC5=CC(C)=NN5)=C2)CC1
  61   65    0    0    0
SMALL
USER_CHARGES
NO_NAME
@<TRIPOS>ATOM
    1 C1       -0.0673    -0.3374     2.4943 C.3    1 <0>      -0.1000
    2 C2       -0.0528    -0.8185     1.0662 C.2    1 <0>       0.1200
    3 C3       -0.0188    -2.1082     0.6608 C.2    1 <0>      -0.2900
    4 C4       -0.0166    -2.1185    -0.7434 C.2    1 <0>       0.3300
    5 N5        0.0137    -3.2577    -1.5578 N.pl3  1 <0>      -0.6100
    6 C6       -0.0952    -3.1290    -2.9345 C.ar   1 <0>       0.4500
    7 C7       -0.1126    -1.8691    -3.5258 C.ar   1 <0>      -0.3500
    8 C8       -0.2235    -1.7886    -4.9112 C.ar   1 <0>       0.4700
    9 N9       -0.2444    -0.5552    -5.5436 N.pl3  1 <0>      -0.6000
   10 C10      -0.5826    -0.4441    -6.9706 C.3    1 <0>       0.1300
   11 C11      -1.6787     0.6148    -7.1301 C.3    1 <0>       0.0400
   12 N12      -1.2423     1.8660    -6.4960 N.3    1 <0>      -0.5400
   13 C13      -2.1880     2.9550    -6.7744 C.3    1 <0>       0.0200
   14 C14      -1.0507     1.6919    -5.0500 C.3    1 <0>       0.0400
   15 C15       0.0652     0.6777    -4.8038 C.3    1 <0>       0.1300
   16 N16      -0.3086    -2.9114    -5.6205 N.ar   1 <0>      -0.5800
   17 C17      -0.2889    -4.0944    -5.0236 C.ar   1 <0>       0.3600
   18 S18      -0.4039    -5.5529    -6.0054 S.3    1 <0>       0.1100
   19 C19      -0.1798    -6.7788    -4.7596 C.ar   1 <0>      -0.1500
   20 C20      -1.2847    -7.3712    -4.1612 C.ar   1 <0>      -0.0300
   21 C21      -1.1089    -8.3318    -3.1857 C.ar   1 <0>      -0.1600
   22 C22       0.1723    -8.7057    -2.8021 C.ar   1 <0>       0.1800
   23 N23       0.3505    -9.6808    -1.8119 N.am   1 <0>      -0.6700
   24 C24       1.3877    -9.5904    -0.9559 C.2    1 <0>       0.5400
   25 O25       2.1072    -8.6141    -0.9760 O.2    1 <0>      -0.5100
   26 C26       1.6533   -10.7022     0.0261 C.3    1 <0>      -0.2000
   27 C27       2.9146   -11.5427    -0.1827 C.3    1 <0>      -0.1500
   28 C28       2.8457   -10.5402     0.9711 C.3    1 <0>      -0.1400
   29 C29       1.2771    -8.1136    -3.4002 C.ar   1 <0>      -0.1300
   30 C30       1.1018    -7.1571    -4.3798 C.ar   1 <0>      -0.0300
   31 N31      -0.1790    -4.2090    -3.7083 N.ar   1 <0>      -0.5900
   32 N32      -0.0484    -0.8742    -1.1591 N.2    1 <0>      -0.3300
   33 N33      -0.0775    -0.0388    -0.0352 N.pl3  1 <0>      -0.4700
   34 H34      -1.0979    -0.2529     2.8388 H      1 <0>       0.0800
   35 H35       0.4688    -1.0486     3.1227 H      1 <0>       0.0900
   36 H36       0.4169     0.6373     2.5543 H      1 <0>       0.0800
   37 H37       0.0032    -2.9762     1.3031 H      1 <0>       0.1500
   38 H38       0.1108    -4.1366    -1.1590 H      1 <0>       0.4300
   39 H39      -0.0421    -0.9751    -2.9240 H      1 <0>       0.1900
   40 H40       0.3010    -0.1443    -7.5341 H      1 <0>       0.0700
   41 H41      -0.9454    -1.4046    -7.3368 H      1 <0>       0.1000
   42 H42      -1.8641     0.7896    -8.1899 H      1 <0>       0.0900
   43 H43      -2.5943     0.2653    -6.6530 H      1 <0>       0.0400
   44 H44      -3.1714     2.6906    -6.3855 H      1 <0>       0.0300
   45 H45      -1.8410     3.8695    -6.2933 H      1 <0>       0.0700
   46 H46      -2.2535     3.1131    -7.8509 H      1 <0>       0.0700
   47 H47      -0.7807     2.6478    -4.6012 H      1 <0>       0.0900
   48 H48      -1.9750     1.3274    -4.6019 H      1 <0>       0.0400
   49 H49       0.1333     0.4598    -3.7380 H      1 <0>       0.1000
   50 H50       1.0128     1.0826    -5.1589 H      1 <0>       0.0800
   51 H51      -2.2812    -7.0799    -4.4590 H      1 <0>       0.1300
   52 H52      -1.9679    -8.7924    -2.7204 H      1 <0>       0.1300
   53 H53      -0.2726   -10.4210    -1.7423 H      1 <0>       0.4100
   54 H54       0.7692   -11.2084     0.4136 H      1 <0>       0.1300
   55 H55       2.8604   -12.6023     0.0674 H      1 <0>       0.1100
   56 H56       3.5523   -11.2915    -1.0303 H      1 <0>       0.1000
   57 H57       3.4379    -9.6294     0.8825 H      1 <0>       0.1100
   58 H58       2.7461   -10.9402     1.9801 H      1 <0>       0.1100
   59 H59       2.2734    -8.4046    -3.1017 H      1 <0>       0.1400
   60 H60       1.9609    -6.6969    -4.8451 H      1 <0>       0.1300
   61 H61      -0.1040     0.9308    -0.0464 H      1 <0>       0.4400
@<TRIPOS>BOND
   1    1    2 1
   2    1   34 1
   3    1   35 1
   4    1   36 1
   5    2   33 1
   6    2    3 2
   7    3    4 1
   8    3   37 1
   9    4    5 1
  10    4   32 2
  11    5    6 1
  12    5   38 1
  13    6   31 ar
  14    6    7 ar
  15    7    8 ar
  16    7   39 1
  17    8    9 1
  18    8   16 ar
  19    9   15 1
  20    9   10 1
  21   10   11 1
  22   10   40 1
  23   10   41 1
  24   11   12 1
  25   11   42 1
  26   11   43 1
  27   12   13 1
  28   12   14 1
  29   13   44 1
  30   13   45 1
  31   13   46 1
  32   14   15 1
  33   14   47 1
  34   14   48 1
  35   15   49 1
  36   15   50 1
  37   16   17 ar
  38   17   18 1
  39   17   31 ar
  40   18   19 1
  41   19   30 ar
  42   19   20 ar
  43   20   21 ar
  44   20   51 1
  45   21   22 ar
  46   21   52 1
  47   22   23 1
  48   22   29 ar
  49   23   24 am
  50   23   53 1
  51   24   25 2
  52   24   26 1
  53   26   28 1
  54   26   27 1
  55   26   54 1
  56   27   28 1
  57   27   55 1
  58   27   56 1
  59   28   57 1
  60   28   58 1
  61   29   30 ar
  62   29   59 1
  63   30   60 1
  64   32   33 1
  65   33   61 1


@<TRIPOS>MOLECULE
O=C(COC2=CC=C(CC)C=C2)N1CCCCC1
39    40    1     0     0
SMALL
USER_CHARGES
@<TRIPOS>ATOM
1      C1     -0.0187    1.5258    0.0104 C.3      1 ZINC000000486827   -0.1500
2      C2      0.0021   -0.0041    0.0020 C.3      1 ZINC000000486827   -0.0800
3      C3      0.7309   -0.5033    1.2229 C.ar     1 ZINC000000486827   -0.1200
4      C4      2.0973   -0.7091    1.1749 C.ar     1 ZINC000000486827   -0.0800
5      C5      2.7678   -1.1667    2.2927 C.ar     1 ZINC000000486827   -0.1400
6      C6      2.0690   -1.4193    3.4643 C.ar     1 ZINC000000486827    0.1200
7      O7      2.7264   -1.8690    4.5654 O.3      1 ZINC000000486827   -0.2900
8      C8      1.9428   -2.1077    5.7363 C.3      1 ZINC000000486827    0.0400
9      C9      2.8357   -2.5985    6.8468 C.2      1 ZINC000000486827    0.5200
10     O10     4.0258   -2.7308    6.6544 O.2      1 ZINC000000486827   -0.5100
11     N11     2.3116   -2.8903    8.0537 N.am     1 ZINC000000486827   -0.6100
12     C12     0.8709   -2.7409    8.3002 C.3      1 ZINC000000486827    0.1000
13     C13     0.3254   -4.0620    8.8513 C.3      1 ZINC000000486827   -0.1400
14     C14     1.1352   -4.4689   10.0845 C.3      1 ZINC000000486827   -0.1200
15     C15     2.5988   -4.6781    9.6895 C.3      1 ZINC000000486827   -0.1400
16     C16     3.1693   -3.3697    9.1461 C.3      1 ZINC000000486827    0.1100
17     C17     0.6981   -1.2115    3.5100 C.ar     1 ZINC000000486827   -0.2100
18     C18     0.0330   -0.7493    2.3909 C.ar     1 ZINC000000486827   -0.0800
19     H19     1.0039    1.9031    0.0027 H        1 ZINC000000486827    0.0600
20     H20    -0.5459    1.8868   -0.8726 H        1 ZINC000000486827    0.0600
21     H21    -0.5289    1.8773    0.9072 H        1 ZINC000000486827    0.0500
22     H22    -1.0205   -0.3814    0.0098 H        1 ZINC000000486827    0.0700
23     H23     0.5123   -0.3556   -0.8948 H        1 ZINC000000486827    0.0700
24     H24     2.6409   -0.5123    0.2626 H        1 ZINC000000486827    0.1300
25     H25     3.8350   -1.3280    2.2545 H        1 ZINC000000486827    0.1300
26     H26     1.4568   -1.1816    6.0433 H        1 ZINC000000486827    0.0900
27     H27     1.1854   -2.8610    5.5194 H        1 ZINC000000486827    0.0900
28     H28     0.7051   -1.9456    9.0269 H        1 ZINC000000486827    0.0800
29     H29     0.3638   -2.4971    7.3667 H        1 ZINC000000486827    0.0800
30     H30    -0.7212   -3.9360    9.1286 H        1 ZINC000000486827    0.0800
31     H31     0.4095   -4.8366    8.0890 H        1 ZINC000000486827    0.0700
32     H32     1.0708   -3.6828   10.8368 H        1 ZINC000000486827    0.0700
33     H33     0.7333   -5.3961   10.4931 H        1 ZINC000000486827    0.0700
34     H34     3.1704   -4.9905   10.5634 H        1 ZINC000000486827    0.0800
35     H35     2.6615   -5.4468    8.9193 H        1 ZINC000000486827    0.0700
36     H36     4.1791   -3.5387    8.7723 H        1 ZINC000000486827    0.1000
37     H37     3.1914   -2.6231    9.9400 H        1 ZINC000000486827    0.0700
38     H38     0.1518   -1.4077    4.4208 H        1 ZINC000000486827    0.1300
39     H39    -1.0341   -0.5870    2.4261 H        1 ZINC000000486827    0.1300
@<TRIPOS>BOND
1     1     2     1
2     1     19    1
3     1     20    1
4     1     21    1
5     2     3     1
6     2     22    1
7     2     23    1
8     3     18    ar
9     3     4     ar
10    4     5     ar
11    4     24    1
12    5     6     ar
13    5     25    1
14    6     7     1
15    6     17    ar
16    7     8     1
17    8     9     1
18    8     26    1
19    8     27    1
20    9     10    2
21    9     11    am
22    11    16    1
23    11    12    1
24    12    13    1
25    12    28    1
26    12    29    1
27    13    14    1
28    13    30    1
29    13    31    1
30    14    15    1
31    14    32    1
32    14    33    1
33    15    16    1
34    15    34    1
35    15    35    1
36    16    36    1
37    16    37    1
38    17    18    ar
39    17    38    1
40    18    39    1
@<TRIPOS>SUBSTRUCTURE
1   ZINC000000486827 1     RESIDUE    1   A     ZIN   1


@<TRIPOS>MOLECULE
COC(NC1=NN=C(SCC)S1)=O
  21   21    0    0    0
SMALL
USER_CHARGES
NO_NAME
@<TRIPOS>ATOM
    1 C1       -0.0187     1.5258     0.0104 C.3    1 <0>      -0.1400
    2 C2        0.0021    -0.0041     0.0020 C.3    1 <0>      -0.1100
    3 S3        0.8775    -0.6037     1.4684 S.3    1 <0>      -0.0300
    4 C4        0.7537    -2.3421     1.2091 C.2    1 <0>      -0.0300
    5 N5        0.1825    -2.9473     0.2127 N.2    1 <0>      -0.2700
    6 N6        0.1904    -4.3237     0.1893 N.pl3  1 <0>      -0.4000
    7 C7        0.8000    -4.9442     1.2185 C.2    1 <0>       0.3700
    8 N8        0.9348    -6.2559     1.4143 N.2    1 <0>      -0.6400
    9 C9        0.4320    -7.1173     0.5294 C.2    1 <0>       0.6100
   10 O10      -0.1506    -6.7055    -0.4582 O.2    1 <0>      -0.5900
   11 O11       0.5685    -8.4462     0.7278 O.3    1 <0>      -0.3600
   12 C12       0.0054    -9.3109    -0.2607 C.3    1 <0>       0.0500
   13 S13       1.3901    -3.6278     2.2509 S.3    1 <0>      -0.0400
   14 H14       1.0039     1.9031     0.0027 H      1 <0>       0.0600
   15 H15      -0.5459     1.8868    -0.8726 H      1 <0>       0.0700
   16 H16      -0.5289     1.8773     0.9072 H      1 <0>       0.0600
   17 H17      -1.0205    -0.3814     0.0098 H      1 <0>       0.0900
   18 H18       0.5123    -0.3556    -0.8948 H      1 <0>       0.0900
   19 H19       0.1852   -10.3488     0.0197 H      1 <0>       0.0900
   20 H20      -1.0679    -9.1338    -0.3294 H      1 <0>       0.0500
   21 H21       0.4694    -9.1098    -1.2262 H      1 <0>       0.0500
@<TRIPOS>BOND
   1    1    2 1
   2    1   14 1
   3    1   15 1
   4    1   16 1
   5    2    3 1
   6    2   17 1
   7    2   18 1
   8    3    4 1
   9    4   13 1
  10    4    5 2
  11    5    6 1
  12    6    7 1
  13    7    8 2
  14    7   13 1
  15    8    9 1
  16    9   10 2
  17    9   11 1
  18   11   12 1
  19   12   19 1
  20   12   20 1
  21   12   21 1


@<TRIPOS>MOLECULE
OC1=C(F)C=C(F)C=C1C2=CC=NN2
19    20    1     0     0
SMALL
USER_CHARGES
@<TRIPOS>ATOM
1      O1      0.0021   -0.0041    0.0020 O.3      1 ZINC000000140092   -0.6800
2      C2     -0.0164    1.3554    0.0095 C.ar     1 ZINC000000140092    0.2700
3      C3     -1.2256    2.0346    0.0305 C.ar     1 ZINC000000140092   -0.0300
4      F4     -2.3871    1.3447    0.0435 F        1 ZINC000000140092   -0.1500
5      C5     -1.2432    3.4184    0.0385 C.ar     1 ZINC000000140092   -0.1200
6      C6     -0.0556    4.1315    0.0252 C.ar     1 ZINC000000140092   -0.0400
7      F7     -0.0809    5.4822    0.0335 F        1 ZINC000000140092   -0.1600
8      C8      1.1553    3.4650    0.0038 C.ar     1 ZINC000000140092   -0.0700
9      C9      1.1826    2.0724    0.0019 C.ar     1 ZINC000000140092   -0.1500
10     C10     2.4802    1.3530   -0.0205 C.2      1 ZINC000000140092    0.1600
11     N11     3.6735    1.9085   -0.0342 N.2      1 ZINC000000140092   -0.3200
12     N12     4.6299    0.8853   -0.0535 N.pl3    1 ZINC000000140092   -0.5000
13     C13     3.9796   -0.2981   -0.0511 C.2      1 ZINC000000140092    0.0200
14     C14     2.6529   -0.0449   -0.0248 C.2      1 ZINC000000140092   -0.2300
15     H15    -2.1863    3.9444    0.0548 H        1 ZINC000000140092    0.1200
16     H16     2.0795    4.0237   -0.0070 H        1 ZINC000000140092    0.1200
17     H17     5.5922    1.0059   -0.0669 H        1 ZINC000000140092    0.4300
18     H18     4.4394   -1.2753   -0.0636 H        1 ZINC000000140092    0.1700
19     H19     1.8646   -0.7831   -0.0163 H        1 ZINC000000140092    0.1700
@<TRIPOS>BOND
1     1     2     1
2     2     9     ar
3     2     3     ar
4     3     4     1
5     3     5     ar
6     5     6     ar
7     5     15    1
8     6     7     1
9     6     8     ar
10    8     9     ar
11    8     16    1
12    9     10    1
13    10    14    1
14    10    11    2
15    11    12    1
16    12    13    1
17    12    17    1
18    13    14    2
19    13    18    1
20    14    19    1
@<TRIPOS>SUBSTRUCTURE
1   ZINC000000140092 1     RESIDUE    1   A     ZIN   1


@<TRIPOS>MOLECULE
NC1=C(C(OC)=O)SC(C2=CC=CS2)=C1
24    25    1     0     0
SMALL
USER_CHARGES
@<TRIPOS>ATOM
1      C1     -0.0173    1.4248    0.0099 C.3      1 ZINC000000116168    0.0400
2      O2      0.0021   -0.0041    0.0020 O.3      1 ZINC000000116168   -0.3600
3      C3     -1.1928   -0.6335    0.0100 C.2      1 ZINC000000116168    0.5500
4      O4     -2.2230    0.0158    0.0234 O.2      1 ZINC000000116168   -0.5300
5      C5     -1.2475   -2.0419    0.0030 C.2      1 ZINC000000116168   -0.3800
6      C6     -2.4030   -2.7911    0.0045 C.2      1 ZINC000000116168    0.3100
7      N7     -3.6724   -2.2195    0.0130 N.pl3    1 ZINC000000116168   -0.8300
8      C8     -2.1986   -4.1494   -0.0034 C.2      1 ZINC000000116168   -0.2000
9      C9     -0.8868   -4.5300   -0.0116 C.2      1 ZINC000000116168   -0.0400
10     C10    -0.4117   -5.9210   -0.0217 C.2      1 ZINC000000116168   -0.1500
11     C11     0.8946   -6.3074   -0.0244 C.2      1 ZINC000000116168   -0.1100
12     C12     1.0852   -7.6714   -0.0339 C.2      1 ZINC000000116168   -0.1300
13     C13    -0.0344   -8.4026   -0.0391 C.2      1 ZINC000000116168   -0.2000
14     S14    -1.4407   -7.3474   -0.0247 S.3      1 ZINC000000116168    0.1600
15     S15     0.1490   -3.1098   -0.0167 S.3      1 ZINC000000116168    0.2300
16     H16     1.0053    1.8021    0.0021 H        1 ZINC000000116168    0.1000
17     H17    -0.5445    1.7859   -0.8732 H        1 ZINC000000116168    0.0600
18     H18    -0.5275    1.7763    0.9067 H        1 ZINC000000116168    0.0600
19     H19    -3.7698   -1.2544    0.0181 H        1 ZINC000000116168    0.4200
20     H20    -4.4596   -2.7864    0.0138 H        1 ZINC000000116168    0.4000
21     H21    -3.0114   -4.8606   -0.0030 H        1 ZINC000000116168    0.1500
22     H22     1.7129   -5.6026   -0.0200 H        1 ZINC000000116168    0.1500
23     H23     2.0684   -8.1184   -0.0373 H        1 ZINC000000116168    0.1500
24     H24    -0.0696   -9.4820   -0.0472 H        1 ZINC000000116168    0.1700
@<TRIPOS>BOND
1     1     2     1
2     1     16    1
3     1     17    1
4     1     18    1
5     2     3     1
6     3     4     2
7     3     5     1
8     5     15    1
9     5     6     2
10    6     7     1
11    6     8     1
12    7     19    1
13    7     20    1
14    8     9     2
15    8     21    1
16    9     10    1
17    9     15    1
18    10    14    1
19    10    11    2
20    11    12    1
21    11    22    1
22    12    13    2
23    12    23    1
24    13    14    1
25    13    24    1
@<TRIPOS>SUBSTRUCTURE
1   ZINC000000116168 1     RESIDUE    1   A     ZIN   1


@<TRIPOS>MOLECULE
ClC1=CC=CC(N2CC[NH+](CC#N)CC2)=C1
  30   31    0    0    0
SMALL
USER_CHARGES
NO_NAME
@<TRIPOS>ATOM
    1 N1        0.0452    -1.1608    -0.0180 N.1    1 <0>      -0.4200
    2 C2        0.0212    -0.0252    -0.0027 C.1    1 <0>       0.2000
    3 C3       -0.0098     1.4464     0.0172 C.3    1 <0>       0.1500
    4 N4        1.3644     1.9654     0.0033 N.3    1 <0>      -0.5300
    5 C5        2.2099     1.2424     0.9627 C.3    1 <0>       0.0300
    6 C6        3.6665     1.6859     0.7902 C.3    1 <0>       0.1300
    7 N7        3.7237     3.1521     0.8923 N.pl3  1 <0>      -0.6300
    8 C8        4.6250     3.7758     1.7580 C.ar   1 <0>       0.2300
    9 C9        5.4040     3.0134     2.6190 C.ar   1 <0>      -0.2000
   10 C10       6.2950     3.6327     3.4738 C.ar   1 <0>      -0.0600
   11 C11       6.4120     5.0102     3.4738 C.ar   1 <0>      -0.1700
   12 C12       5.6371     5.7735     2.6176 C.ar   1 <0>       0.0200
   13 Cl13      5.7870     7.5030     2.6214 Cl     1 <0>      -0.0700
   14 C14       4.7484     5.1594     1.7556 C.ar   1 <0>      -0.1900
   15 C15       2.8063     3.9440     0.0590 C.3    1 <0>       0.1200
   16 C16       1.3835     3.4116     0.2602 C.3    1 <0>       0.0400
   17 H17      -0.5446     1.8104    -0.8601 H      1 <0>       0.1300
   18 H18      -0.5177     1.7869     0.9195 H      1 <0>       0.0800
   19 H19       1.8798     1.4643     1.9776 H      1 <0>       0.0500
   20 H20       2.1320     0.1706     0.7805 H      1 <0>       0.0900
   21 H21       4.2801     1.2401     1.5730 H      1 <0>       0.0900
   22 H22       4.0313     1.3725    -0.1880 H      1 <0>       0.0700
   23 H23       5.3129     1.9373     2.6204 H      1 <0>       0.1300
   24 H24       6.9007     3.0400     4.1433 H      1 <0>       0.1300
   25 H25       7.1091     5.4918     4.1434 H      1 <0>       0.1300
   26 H26       4.1439     5.7550     1.0876 H      1 <0>       0.1300
   27 H27       2.8512     4.9911     0.3584 H      1 <0>       0.0900
   28 H28       3.0884     3.8476    -0.9895 H      1 <0>       0.0800
   29 H29       0.7064     3.9129    -0.4313 H      1 <0>       0.1000
   30 H30       1.0650     3.6032     1.2849 H      1 <0>       0.0500
@<TRIPOS>BOND
   1    1    2 3
   2    2    3 1
   3    3    4 1
   4    3   17 1
   5    3   18 1
   6    4   16 1
   7    4    5 1
   8    5    6 1
   9    5   19 1
  10    5   20 1
  11    6    7 1
  12    6   21 1
  13    6   22 1
  14    7    8 1
  15    7   15 1
  16    8   14 ar
  17    8    9 ar
  18    9   10 ar
  19    9   23 1
  20   10   11 ar
  21   10   24 1
  22   11   12 ar
  23   11   25 1
  24   12   13 1
  25   12   14 ar
  26   14   26 1
  27   15   16 1
  28   15   27 1
  29   15   28 1
  30   16   29 1
  31   16   30 1


@<TRIPOS>MOLECULE
CCOC1=CC=C2C(SC(C)=N2)=C1
24    25    1     0     0
SMALL
USER_CHARGES
@<TRIPOS>ATOM
1      C1     -0.0187    1.5258    0.0104 C.3      1 ZINC000000298393   -0.1500
2      C2      0.0021   -0.0041    0.0020 C.3      1 ZINC000000298393    0.0500
3      O3      0.6709   -0.4649   -1.1737 O.3      1 ZINC000000298393   -0.3100
4      C4      0.7768   -1.8105   -1.3362 C.ar     1 ZINC000000298393    0.1500
5      C5      0.2411   -2.6723   -0.3834 C.ar     1 ZINC000000298393   -0.1900
6      C6      0.3397   -4.0214   -0.5322 C.ar     1 ZINC000000298393   -0.0200
7      C7      0.9875   -4.5751   -1.6571 C.ar     1 ZINC000000298393    0.0400
8      N8      1.1785   -5.8722   -1.9686 N.2      1 ZINC000000298393   -0.4600
9      C9      1.8005   -6.1469   -3.0532 C.2      1 ZINC000000298393    0.1200
10     C10     2.0957   -7.5403   -3.5456 C.3      1 ZINC000000298393   -0.0800
11     S11     2.2619   -4.6697   -3.8877 S.3      1 ZINC000000298393    0.0500
12     C12     1.5237   -3.7046   -2.6118 C.ar     1 ZINC000000298393   -0.1300
13     C13     1.4112   -2.3252   -2.4498 C.ar     1 ZINC000000298393   -0.1200
14     H14     1.0039    1.9031    0.0027 H        1 ZINC000000298393    0.0700
15     H15    -0.5459    1.8868   -0.8726 H        1 ZINC000000298393    0.0700
16     H16    -0.5289    1.8773    0.9072 H        1 ZINC000000298393    0.0800
17     H17     0.5293   -0.3651    0.8851 H        1 ZINC000000298393    0.0700
18     H18    -1.0205   -0.3814    0.0098 H        1 ZINC000000298393    0.0700
19     H19    -0.2581   -2.2657    0.4838 H        1 ZINC000000298393    0.1400
20     H20    -0.0815   -4.6744    0.2178 H        1 ZINC000000298393    0.1400
21     H21     1.2742   -7.8855   -4.1734 H        1 ZINC000000298393    0.0900
22     H22     3.0182   -7.5327   -4.1260 H        1 ZINC000000298393    0.0900
23     H23     2.2081   -8.2106   -2.6934 H        1 ZINC000000298393    0.0900
24     H24     1.8229   -1.6587   -3.1932 H        1 ZINC000000298393    0.1400
@<TRIPOS>BOND
1     1     2     1
2     1     14    1
3     1     15    1
4     1     16    1
5     2     3     1
6     2     17    1
7     2     18    1
8     3     4     1
9     4     13    ar
10    4     5     ar
11    5     6     ar
12    5     19    1
13    6     7     ar
14    6     20    1
15    7     12    ar
16    7     8     1
17    8     9     2
18    9     10    1
19    9     11    1
20    10    21    1
21    10    22    1
22    10    23    1
23    11    12    1
24    12    13    ar
25    13    24    1
@<TRIPOS>SUBSTRUCTURE
1   ZINC000000298393 1     RESIDUE    1   A     ZIN   1


@<TRIPOS>MOLECULE
CCOC1=CC=C([C@H](N)C)C=C1
28    28    1     0     0
SMALL
USER_CHARGES
@<TRIPOS>ATOM
1      C1     -0.0187    1.5258    0.0104 C.3      1 ZINC000000295638   -0.1600
2      C2      0.0021   -0.0041    0.0020 C.3      1 ZINC000000295638    0.0500
3      O3      0.6932   -0.4774    1.1597 O.3      1 ZINC000000295638   -0.3100
4      C4      0.8020   -1.8242    1.3057 C.ar     1 ZINC000000295638    0.1700
5      C5      0.2597   -2.6726    0.3512 C.ar     1 ZINC000000295638   -0.2000
6      C6      0.3721   -4.0412    0.5016 C.ar     1 ZINC000000295638   -0.0400
7      C7      1.0238   -4.5657    1.6025 C.ar     1 ZINC000000295638   -0.2000
8      C8      1.1444   -6.0591    1.7643 C.3      1 ZINC000000295638    0.0900
9      H9      0.3892   -6.5530    1.1529 H        1 ZINC000000295638    0.1500
10     C10     2.5367   -6.5097    1.3177 C.3      1 ZINC000000295638   -0.1800
11     N11     0.9431   -6.4167    3.1748 N.4      1 ZINC000000295638   -0.6400
12     H12     0.0249   -6.1195    3.4694 H        1 ZINC000000295638    0.4400
13     H13     1.0239   -7.4166    3.2832 H        1 ZINC000000295638    0.4400
14     H14     1.6422   -5.9595    3.7408 H        1 ZINC000000295638    0.4300
15     C15     1.5655   -3.7223    2.5549 C.ar     1 ZINC000000295638   -0.0800
16     C16     1.4604   -2.3529    2.4064 C.ar     1 ZINC000000295638   -0.1400
17     H17     1.0039    1.9031    0.0027 H        1 ZINC000000295638    0.0700
18     H18    -0.5459    1.8868   -0.8726 H        1 ZINC000000295638    0.0900
19     H19    -0.5289    1.8773    0.9072 H        1 ZINC000000295638    0.0700
20     H20    -1.0205   -0.3814    0.0098 H        1 ZINC000000295638    0.0700
21     H21     0.5123   -0.3556   -0.8948 H        1 ZINC000000295638    0.0700
22     H22    -0.2501   -2.2634   -0.5084 H        1 ZINC000000295638    0.1400
23     H23    -0.0499   -4.7020   -0.2411 H        1 ZINC000000295638    0.1400
24     H24     3.2919   -6.0158    1.9291 H        1 ZINC000000295638    0.0800
25     H25     2.6239   -7.5899    1.4347 H        1 ZINC000000295638    0.0800
26     H26     2.6861   -6.2444    0.2711 H        1 ZINC000000295638    0.1100
27     H27     2.0744   -4.1344    3.4137 H        1 ZINC000000295638    0.1300
28     H28     1.8837   -1.6945    3.1506 H        1 ZINC000000295638    0.1400
@<TRIPOS>BOND
1     1     2     1
2     1     17    1
3     1     18    1
4     1     19    1
5     2     3     1
6     2     20    1
7     2     21    1
8     3     4     1
9     4     16    ar
10    4     5     ar
11    5     6     ar
12    5     22    1
13    6     7     ar
14    6     23    1
15    7     8     1
16    7     15    ar
17    8     9     1
18    8     10    1
19    8     11    1
20    10    24    1
21    10    25    1
22    10    26    1
23    11    12    1
24    11    13    1
25    11    14    1
26    15    16    ar
27    15    27    1
28    16    28    1
@<TRIPOS>SUBSTRUCTURE
1   ZINC000000295638 1     RESIDUE    1   A     ZIN   1


@<TRIPOS>MOLECULE
CSC1=NSC(SC)=C1CO
  20   20    0    0    0
SMALL
USER_CHARGES
NO_NAME
@<TRIPOS>ATOM
    1 C1       -0.0225     1.8097     0.0120 C.3    1 <0>      -0.1500
    2 S2        0.0021    -0.0041     0.0020 S.3    1 <0>      -0.0100
    3 C3       -1.7092    -0.4238     0.0161 C.2    1 <0>       0.1300
    4 N4       -2.6390     0.4927     0.0244 N.2    1 <0>      -0.4800
    5 S5       -4.1346    -0.3062     0.0358 S.3    1 <0>       0.2800
    6 C6       -3.4829    -1.8981     0.0292 C.2    1 <0>      -0.1800
    7 S7       -4.3779    -3.4159     0.0352 S.3    1 <0>       0.0100
    8 C8       -6.1076    -2.8696     0.0503 C.3    1 <0>      -0.1700
    9 C9       -2.1332    -1.7399     0.0131 C.2    1 <0>      -0.1400
   10 C10      -1.1764    -2.9042     0.0026 C.3    1 <0>       0.1400
   11 O11      -0.8900    -3.2732    -1.3479 O.3    1 <0>      -0.5600
   12 H12       1.0001     2.1870     0.0043 H      1 <0>       0.1100
   13 H13      -0.5497     2.1708    -0.8711 H      1 <0>       0.0900
   14 H14      -0.5327     2.1613     0.9088 H      1 <0>       0.0900
   15 H15      -6.3068    -2.2693    -0.8374 H      1 <0>       0.0900
   16 H16      -6.7635    -3.7402     0.0549 H      1 <0>       0.1200
   17 H17      -6.2918    -2.2712     0.9425 H      1 <0>       0.0900
   18 H18      -0.2521    -2.6194     0.5053 H      1 <0>       0.0700
   19 H19      -1.6271    -3.7496     0.5225 H      1 <0>       0.0600
   20 H20      -0.2789    -4.0180    -1.4310 H      1 <0>       0.3800
@<TRIPOS>BOND
   1    1    2 1
   2    1   12 1
   3    1   13 1
   4    1   14 1
   5    2    3 1
   6    3    9 1
   7    3    4 2
   8    4    5 1
   9    5    6 1
  10    6    7 1
  11    6    9 2
  12    7    8 1
  13    8   15 1
  14    8   16 1
  15    8   17 1
  16    9   10 1
  17   10   11 1
  18   10   18 1
  19   10   19 1
  20   11   20 1


@<TRIPOS>MOLECULE
O=C(O)C1=C3C(C=CC=C3)=NC(C2=CC=CC(F)=C2)=C1
29    31    1     0     0
SMALL
USER_CHARGES
@<TRIPOS>ATOM
1      O1      0.0022   -0.0040    0.0191 O.co2    1 ZINC000019803135   -0.6700
2      C2     -0.0145    1.2186    0.0087 C.2      1 ZINC000019803135    0.5300
3      O3      1.0359    1.8443   -0.0150 O.co2    1 ZINC000019803135   -0.6700
4      C4     -1.3030    1.9394    0.0188 C.ar     1 ZINC000019803135   -0.0600
5      C5     -1.3590    3.3976    0.1297 C.ar     1 ZINC000019803135   -0.0800
6      C6     -0.1961    4.1685    0.2307 C.ar     1 ZINC000019803135   -0.0700
7      C7     -0.2936    5.5247    0.3319 C.ar     1 ZINC000019803135   -0.1500
8      C8     -1.5373    6.1528    0.3360 C.ar     1 ZINC000019803135   -0.1000
9      C9     -2.6883    5.4334    0.2394 C.ar     1 ZINC000019803135   -0.1100
10     C10    -2.6278    4.0310    0.1333 C.ar     1 ZINC000019803135    0.1200
11     N11    -3.7385    3.2997    0.0367 N.ar     1 ZINC000019803135   -0.4800
12     C12    -3.7117    1.9878   -0.0640 C.ar     1 ZINC000019803135    0.1900
13     C13    -4.9949    1.2518   -0.1672 C.ar     1 ZINC000019803135   -0.0100
14     C14    -4.9975   -0.1383   -0.2693 C.ar     1 ZINC000019803135   -0.1100
15     C15    -6.1942   -0.8194   -0.3652 C.ar     1 ZINC000019803135   -0.0900
16     C16    -7.3905   -0.1259   -0.3607 C.ar     1 ZINC000019803135   -0.1500
17     C17    -7.3953    1.2562   -0.2595 C.ar     1 ZINC000019803135    0.0900
18     F18    -8.5672    1.9283   -0.2552 F        1 ZINC000019803135   -0.1400
19     C19    -6.2028    1.9473   -0.1568 C.ar     1 ZINC000019803135   -0.1200
20     C20    -2.5112    1.2615   -0.0826 C.ar     1 ZINC000019803135   -0.1500
21     H21     0.7732    3.6922    0.2289 H        1 ZINC000019803135    0.1700
22     H22     0.6044    6.1195    0.4102 H        1 ZINC000019803135    0.1200
23     H23    -1.5888    7.2285    0.4176 H        1 ZINC000019803135    0.1200
24     H24    -3.6442    5.9361    0.2445 H        1 ZINC000019803135    0.1300
25     H25    -4.0642   -0.6818   -0.2737 H        1 ZINC000019803135    0.1400
26     H26    -6.1963   -1.8965   -0.4442 H        1 ZINC000019803135    0.1400
27     H27    -8.3243   -0.6631   -0.4367 H        1 ZINC000019803135    0.1300
28     H28    -6.2065    3.0244   -0.0775 H        1 ZINC000019803135    0.1500
29     H29    -2.5267    0.1849   -0.1667 H        1 ZINC000019803135    0.1500
@<TRIPOS>BOND
1     1     2     ar
2     2     3     ar
3     2     4     1
4     4     20    ar
5     4     5     ar
6     5     10    ar
7     5     6     ar
8     6     7     ar
9     6     21    1
10    7     8     ar
11    7     22    1
12    8     9     ar
13    8     23    1
14    9     10    ar
15    9     24    1
16    10    11    ar
17    11    12    ar
18    12    13    1
19    12    20    ar
20    13    19    ar
21    13    14    ar
22    14    15    ar
23    14    25    1
24    15    16    ar
25    15    26    1
26    16    17    ar
27    16    27    1
28    17    18    1
29    17    19    ar
30    19    28    1
31    20    29    1
@<TRIPOS>SUBSTRUCTURE
1   ZINC000019803135 1     RESIDUE    1   A     ZIN   1


@<TRIPOS>MOLECULE
O=C(O)C1=C3C(C=CC=C3)=NC(C2=CC=CC(Br)=C2)=C1
  29   31    0    0    0
SMALL
USER_CHARGES
NO_NAME
@<TRIPOS>ATOM
    1 O1        0.0022    -0.0040     0.0191 O.co2  1 <0>      -0.6700
    2 C2       -0.0145     1.2186     0.0087 C.2    1 <0>       0.5300
    3 O3        1.0359     1.8443    -0.0150 O.co2  1 <0>      -0.6700
    4 C4       -1.3030     1.9394     0.0188 C.ar   1 <0>      -0.0600
    5 C5       -1.3590     3.3976     0.1298 C.ar   1 <0>      -0.0800
    6 C6       -0.1960     4.1685     0.2303 C.ar   1 <0>      -0.0700
    7 C7       -0.2936     5.5247     0.3316 C.ar   1 <0>      -0.1500
    8 C8       -1.5373     6.1528     0.3362 C.ar   1 <0>      -0.1000
    9 C9       -2.6883     5.4333     0.2401 C.ar   1 <0>      -0.1100
   10 C10      -2.6278     4.0309     0.1339 C.ar   1 <0>       0.1200
   11 N11      -3.7385     3.2996     0.0377 N.ar   1 <0>      -0.4800
   12 C12      -3.7117     1.9877    -0.0631 C.ar   1 <0>       0.1900
   13 C13      -4.9949     1.2517    -0.1663 C.ar   1 <0>      -0.0300
   14 C14      -4.9977    -0.1384    -0.2684 C.ar   1 <0>      -0.0800
   15 C15      -6.1949    -0.8186    -0.3642 C.ar   1 <0>      -0.1200
   16 C16      -7.3906    -0.1238    -0.3596 C.ar   1 <0>      -0.0900
   17 C17      -7.3945     1.2569    -0.2589 C.ar   1 <0>      -0.1000
   18 Br18     -9.0344     2.1985    -0.2540 Br     1 <0>      -0.0600
   19 C19      -6.2031     1.9472    -0.1558 C.ar   1 <0>      -0.0500
   20 C20      -2.5112     1.2615    -0.0826 C.ar   1 <0>      -0.1500
   21 H21       0.7733     3.6922     0.2281 H      1 <0>       0.1700
   22 H22       0.6044     6.1196     0.4096 H      1 <0>       0.1200
   23 H23      -1.5888     7.2285     0.4179 H      1 <0>       0.1200
   24 H24      -3.6442     5.9360     0.2455 H      1 <0>       0.1300
   25 H25      -4.0647    -0.6822    -0.2728 H      1 <0>       0.1400
   26 H26      -6.1978    -1.8957    -0.4434 H      1 <0>       0.1400
   27 H27      -8.3249    -0.6603    -0.4352 H      1 <0>       0.1300
   28 H28      -6.2067     3.0243    -0.0772 H      1 <0>       0.1400
   29 H29      -2.5267     0.1848    -0.1664 H      1 <0>       0.1400
@<TRIPOS>BOND
   1    1    2 ar
   2    2    3 ar
   3    2    4 1
   4    4   20 ar
   5    4    5 ar
   6    5   10 ar
   7    5    6 ar
   8    6    7 ar
   9    6   21 1
  10    7    8 ar
  11    7   22 1
  12    8    9 ar
  13    8   23 1
  14    9   10 ar
  15    9   24 1
  16   10   11 ar
  17   11   12 ar
  18   12   13 1
  19   12   20 ar
  20   13   19 ar
  21   13   14 ar
  22   14   15 ar
  23   14   25 1
  24   15   16 ar
  25   15   26 1
  26   16   17 ar
  27   16   27 1
  28   17   18 1
  29   17   19 ar
  30   19   28 1
  31   20   29 1


@<TRIPOS>MOLECULE
NC2=C(N=NS2)C1=CC=C(C(F)(F)F)C=C1
  22   23    0    0    0
SMALL
USER_CHARGES
NO_NAME
@<TRIPOS>ATOM
    1 N1       -0.0168     1.3842     0.0097 N.pl3  1 <0>      -0.7900
    2 C2        0.0021    -0.0041     0.0020 C.2    1 <0>       0.1300
    3 C3       -1.0777    -0.8661     0.0021 C.2    1 <0>      -0.0700
    4 C4       -2.4809    -0.3889     0.0104 C.ar   1 <0>       0.0400
    5 C5       -2.8215     0.7713     0.7047 C.ar   1 <0>      -0.1300
    6 C6       -4.1295     1.2110     0.7085 C.ar   1 <0>      -0.0600
    7 C7       -5.1021     0.5029     0.0255 C.ar   1 <0>      -0.1800
    8 C8       -6.5288     0.9881     0.0340 C.3    1 <0>       0.5100
    9 F9       -6.7329     1.8551    -1.0448 F      1 <0>      -0.1800
   10 F10      -7.3940    -0.1057    -0.0766 F      1 <0>      -0.1800
   11 F11      -6.7840     1.6653     1.2313 F      1 <0>      -0.1800
   12 C12      -4.7701    -0.6487    -0.6655 C.ar   1 <0>      -0.0600
   13 C13      -3.4645    -1.0952    -0.6808 C.ar   1 <0>      -0.0900
   14 N14      -0.7620    -2.1481    -0.0063 N.2    1 <0>      -0.1700
   15 N15       0.4742    -2.4799    -0.0135 N.2    1 <0>      -0.2300
   16 S16       1.3774    -1.0422    -0.0173 S.3    1 <0>       0.2300
   17 H17       0.8166     1.8806     0.0044 H      1 <0>       0.4200
   18 H18      -0.8633     1.8578     0.0162 H      1 <0>       0.4200
   19 H19      -2.0631     1.3245     1.2388 H      1 <0>       0.1300
   20 H20      -4.3945     2.1095     1.2459 H      1 <0>       0.1400
   21 H21      -5.5336    -1.1974    -1.1968 H      1 <0>       0.1400
   22 H22      -3.2064    -1.9941    -1.2209 H      1 <0>       0.1400
@<TRIPOS>BOND
   1    1    2 1
   2    1   17 1
   3    1   18 1
   4    2   16 1
   5    2    3 2
   6    3    4 1
   7    3   14 1
   8    4   13 ar
   9    4    5 ar
  10    5    6 ar
  11    5   19 1
  12    6    7 ar
  13    6   20 1
  14    7    8 1
  15    7   12 ar
  16    8    9 1
  17    8   10 1
  18    8   11 1
  19   12   13 ar
  20   12   21 1
  21   13   22 1
  22   14   15 2
  23   15   16 1


@<TRIPOS>MOLECULE
ClC1=C(OC2=CC=C(N)C=N2)C(Cl)=CC=C1
24    25    1     0     0
SMALL
USER_CHARGES
@<TRIPOS>ATOM
1      N1     -0.0169    1.3954    0.0097 N.pl3    1 ZINC000000166489   -0.8700
2      C2      0.0021   -0.0041    0.0020 C.ar     1 ZINC000000166489    0.1400
3      C3     -1.1898   -0.7260    0.0037 C.ar     1 ZINC000000166489   -0.1200
4      C4     -1.1227   -2.1081   -0.0046 C.ar     1 ZINC000000166489   -0.1300
5      C5      0.1210   -2.7257   -0.0143 C.ar     1 ZINC000000166489    0.2600
6      O6      0.1967   -4.0813   -0.0229 O.3      1 ZINC000000166489   -0.2400
7      C7      1.4307   -4.6515   -0.0323 C.ar     1 ZINC000000166489    0.1200
8      C8      2.0587   -4.9307   -1.2383 C.ar     1 ZINC000000166489   -0.0300
9      Cl9     1.2693   -4.5513   -2.7372 Cl       1 ZINC000000166489   -0.0400
10     C10     3.3137   -5.5107   -1.2446 C.ar     1 ZINC000000166489   -0.1000
11     C11     3.9432   -5.8127   -0.0512 C.ar     1 ZINC000000166489   -0.0900
12     C12     3.3202   -5.5358    1.1516 C.ar     1 ZINC000000166489   -0.1000
13     C13     2.0676   -4.9506    1.1643 C.ar     1 ZINC000000166489   -0.0300
14     Cl14    1.2864   -4.6028    2.6751 Cl       1 ZINC000000166489   -0.0400
15     N15     1.2326   -2.0093   -0.0156 N.ar     1 ZINC000000166489   -0.4800
16     C16     1.2077   -0.6903   -0.0132 C.ar     1 ZINC000000166489    0.0700
17     H17     0.8164    1.8918    0.0044 H        1 ZINC000000166489    0.4000
18     H18    -0.8634    1.8690    0.0163 H        1 ZINC000000166489    0.4000
19     H19    -2.1433   -0.2189    0.0116 H        1 ZINC000000166489    0.1400
20     H20    -2.0265   -2.6993   -0.0033 H        1 ZINC000000166489    0.1400
21     H21     3.8026   -5.7285   -2.1827 H        1 ZINC000000166489    0.1500
22     H22     4.9234   -6.2661   -0.0587 H        1 ZINC000000166489    0.1500
23     H23     3.8142   -5.7732    2.0822 H        1 ZINC000000166489    0.1500
24     H24     2.1362   -0.1387   -0.0143 H        1 ZINC000000166489    0.1600
@<TRIPOS>BOND
1     1     2     1
2     1     17    1
3     1     18    1
4     2     16    ar
5     2     3     ar
6     3     4     ar
7     3     19    1
8     4     5     ar
9     4     20    1
10    5     6     1
11    5     15    ar
12    6     7     1
13    7     13    ar
14    7     8     ar
15    8     9     1
16    8     10    ar
17    10    11    ar
18    10    21    1
19    11    12    ar
20    11    22    1
21    12    13    ar
22    12    23    1
23    13    14    1
24    15    16    ar
25    16    24    1
@<TRIPOS>SUBSTRUCTURE
1   ZINC000000166489 1     RESIDUE    1   A     ZIN   1


@<TRIPOS>MOLECULE
ClC1=CC=CC(Cl)=C1C2=NOC(C)=C2CO
25    26    1     0     0
SMALL
USER_CHARGES
@<TRIPOS>ATOM
1      C1      0.0508    1.4647   -0.4582 C.3      1 ZINC000000075408   -0.0800
2      C2      0.0326   -0.0208   -0.2055 C.2      1 ZINC000000075408   -0.0100
3      C3     -1.0223   -0.8529   -0.3585 C.2      1 ZINC000000075408   -0.1800
4      C4     -2.4178   -0.5092   -0.8117 C.3      1 ZINC000000075408    0.1500
5      O5     -2.4632   -0.4879   -2.2398 O.3      1 ZINC000000075408   -0.5700
6      C6     -0.5084   -2.1286    0.0069 C.2      1 ZINC000000075408    0.0600
7      C7     -1.2458   -3.4162    0.0216 C.ar     1 ZINC000000075408    0.0000
8      C8     -2.3889   -3.5592    0.8070 C.ar     1 ZINC000000075408   -0.0100
9      Cl9    -2.9541   -2.2304    1.7705 Cl       1 ZINC000000075408   -0.0400
10     C10    -3.0711   -4.7605    0.8165 C.ar     1 ZINC000000075408   -0.1100
11     C11    -2.6223   -5.8199    0.0491 C.ar     1 ZINC000000075408   -0.0800
12     C12    -1.4888   -5.6843   -0.7317 C.ar     1 ZINC000000075408   -0.1000
13     C13    -0.8016   -4.4861   -0.7544 C.ar     1 ZINC000000075408    0.0000
14     Cl14    0.6206   -4.3176   -1.7356 Cl       1 ZINC000000075408   -0.0400
15     N15     0.7474   -1.9367    0.3273 N.2      1 ZINC000000075408   -0.3300
16     O16     1.0606   -0.7749    0.2091 O.3      1 ZINC000000075408    0.1100
17     H17     1.0466    1.8563   -0.2508 H        1 ZINC000000075408    0.0900
18     H18    -0.2066    1.6594   -1.4993 H        1 ZINC000000075408    0.1000
19     H19    -0.6745    1.9529    0.1928 H        1 ZINC000000075408    0.0900
20     H20    -3.1162   -1.2576   -0.4371 H        1 ZINC000000075408    0.0600
21     H21    -2.6943    0.4716   -0.4247 H        1 ZINC000000075408    0.0600
22     H22    -3.3335   -0.2729   -2.6025 H        1 ZINC000000075408    0.3800
23     H23    -3.9565   -4.8727    1.4247 H        1 ZINC000000075408    0.1500
24     H24    -3.1590   -6.7571    0.0598 H        1 ZINC000000075408    0.1500
25     H25    -1.1428   -6.5154   -1.3283 H        1 ZINC000000075408    0.1500
@<TRIPOS>BOND
1     1     2     1
2     1     17    1
3     1     18    1
4     1     19    1
5     2     16    1
6     2     3     2
7     3     4     1
8     3     6     1
9     4     5     1
10    4     20    1
11    4     21    1
12    5     22    1
13    6     7     1
14    6     15    2
15    7     13    ar
16    7     8     ar
17    8     9     1
18    8     10    ar
19    10    11    ar
20    10    23    1
21    11    12    ar
22    11    24    1
23    12    13    ar
24    12    25    1
25    13    14    1
26    15    16    1
@<TRIPOS>SUBSTRUCTURE
1   ZINC000000075408 1     RESIDUE    1   A     ZIN   1


@<TRIPOS>MOLECULE
COC1=C(C2CCN(C(C3CCC3)=O)CC2)C=CC=C1
43    45    1     0     0
SMALL
USER_CHARGES
@<TRIPOS>ATOM
1      C1     -0.0173    1.4248    0.0099 C.3      1 ZINC000000160480    0.0300
2      O2      0.0021   -0.0041    0.0020 O.3      1 ZINC000000160480   -0.3200
3      C3     -1.2003   -0.6375    0.0101 C.ar     1 ZINC000000160480    0.1300
4      C4     -2.3744    0.1010    0.0195 C.ar     1 ZINC000000160480   -0.2100
5      C5     -3.5956   -0.5454    0.0272 C.ar     1 ZINC000000160480   -0.0800
6      C6     -3.6478   -1.9268    0.0260 C.ar     1 ZINC000000160480   -0.1500
7      C7     -2.4787   -2.6653    0.0172 C.ar     1 ZINC000000160480   -0.0800
8      C8     -1.2554   -2.0239    0.0032 C.ar     1 ZINC000000160480   -0.1100
9      C9      0.0183   -2.8292   -0.0070 C.3      1 ZINC000000160480   -0.0400
10     C10     0.0768   -3.7066    1.2456 C.3      1 ZINC000000160480   -0.1200
11     C11     1.3886   -4.4978    1.2491 C.3      1 ZINC000000160480    0.1100
12     N12     1.4960   -5.2410   -0.0137 N.am     1 ZINC000000160480   -0.6100
13     C13     1.7121   -6.5713   -0.0113 C.2      1 ZINC000000160480    0.5300
14     O14     1.8198   -7.1663    1.0401 O.2      1 ZINC000000160480   -0.5400
15     C15     1.8198   -7.3196   -1.3150 C.3      1 ZINC000000160480   -0.1400
16     C16     3.2163   -7.2446   -1.9546 C.3      1 ZINC000000160480   -0.1200
17     C17     3.5695   -8.5018   -1.1425 C.3      1 ZINC000000160480   -0.1400
18     C18     2.0666   -8.8275   -1.1412 C.3      1 ZINC000000160480   -0.1200
19     C19     1.3628   -4.5065   -1.2792 C.3      1 ZINC000000160480    0.1100
20     C20     0.0513   -3.7152   -1.2544 C.3      1 ZINC000000160480   -0.1300
21     H21     1.0053    1.8021    0.0021 H        1 ZINC000000160480    0.1000
22     H22    -0.5445    1.7859   -0.8732 H        1 ZINC000000160480    0.0600
23     H23    -0.5275    1.7763    0.9067 H        1 ZINC000000160480    0.0600
24     H24    -2.3342    1.1802    0.0211 H        1 ZINC000000160480    0.1300
25     H25    -4.5101    0.0291    0.0345 H        1 ZINC000000160480    0.1200
26     H26    -4.6033   -2.4302    0.0324 H        1 ZINC000000160480    0.1200
27     H27    -2.5221   -3.7444    0.0166 H        1 ZINC000000160480    0.1300
28     H28     0.8744   -2.1546   -0.0179 H        1 ZINC000000160480    0.0900
29     H29     0.0297   -3.0763    2.1337 H        1 ZINC000000160480    0.0800
30     H30    -0.7654   -4.3985    1.2448 H        1 ZINC000000160480    0.0700
31     H31     2.2296   -3.8105    1.3413 H        1 ZINC000000160480    0.0700
32     H32     1.3916   -5.1965    2.0858 H        1 ZINC000000160480    0.0900
33     H33     1.0089   -7.0865   -2.0050 H        1 ZINC000000160480    0.1000
34     H34     3.2122   -7.4079   -3.0323 H        1 ZINC000000160480    0.0900
35     H35     3.7840   -6.3616   -1.6614 H        1 ZINC000000160480    0.0700
36     H36     4.1721   -9.2232   -1.6945 H        1 ZINC000000160480    0.0700
37     H37     3.9699   -8.2839   -0.1524 H        1 ZINC000000160480    0.0800
38     H38     1.7062   -9.2223   -0.1913 H        1 ZINC000000160480    0.0800
39     H39     1.7482   -9.4234   -1.9965 H        1 ZINC000000160480    0.0900
40     H40     2.2017   -3.8200   -1.3932 H        1 ZINC000000160480    0.0700
41     H41     1.3489   -5.2110   -2.1108 H        1 ZINC000000160480    0.0900
42     H42    -0.7906   -4.4071   -1.2317 H        1 ZINC000000160480    0.0700
43     H43    -0.0139   -3.0912   -2.1457 H        1 ZINC000000160480    0.0800
@<TRIPOS>BOND
1     1     2     1
2     1     21    1
3     1     22    1
4     1     23    1
5     2     3     1
6     3     8     ar
7     3     4     ar
8     4     5     ar
9     4     24    1
10    5     6     ar
11    5     25    1
12    6     7     ar
13    6     26    1
14    7     8     ar
15    7     27    1
16    8     9     1
17    9     20    1
18    9     10    1
19    9     28    1
20    10    11    1
21    10    29    1
22    10    30    1
23    11    12    1
24    11    31    1
25    11    32    1
26    12    13    am
27    12    19    1
28    13    14    2
29    13    15    1
30    15    18    1
31    15    16    1
32    15    33    1
33    16    17    1
34    16    34    1
35    16    35    1
36    17    18    1
37    17    36    1
38    17    37    1
39    18    38    1
40    18    39    1
41    19    20    1
42    19    40    1
43    19    41    1
44    20    42    1
45    20    43    1
@<TRIPOS>SUBSTRUCTURE
1   ZINC000000160480 1     RESIDUE    1   A     ZIN   1


@<TRIPOS>MOLECULE
OCC(CC2)CCN2C1=C([NH2+]C)C=CC=C1
  36   37    0    0    0
SMALL
USER_CHARGES
NO_NAME
@<TRIPOS>ATOM
    1 C1       -0.0178     1.4608     0.0101 C.3    1 <0>       0.0900
    2 N2        0.0021    -0.0041     0.0020 N.pl3  1 <0>      -0.7500
    3 C3        0.6077    -0.6902    -1.0576 C.ar   1 <0>       0.2100
    4 C4        1.1942     0.0147    -2.0973 C.ar   1 <0>      -0.2000
    5 C5        1.7924    -0.6651    -3.1428 C.ar   1 <0>      -0.0800
    6 C6        1.8073    -2.0471    -3.1552 C.ar   1 <0>      -0.1700
    7 C7        1.2241    -2.7584    -2.1223 C.ar   1 <0>      -0.0800
    8 C8        0.6278    -2.0851    -1.0673 C.ar   1 <0>       0.0900
    9 N9        0.0373    -2.8031    -0.0203 N.pl3  1 <0>      -0.6700
   10 C10      -1.3778    -3.1932    -0.0849 C.3    1 <0>       0.1500
   11 C11      -1.4838    -4.7039     0.1455 C.3    1 <0>      -0.1300
   12 C12      -0.7918    -5.0649     1.4619 C.3    1 <0>      -0.0800
   13 C13      -0.9256    -6.5683     1.7126 C.3    1 <0>       0.0800
   14 O14      -0.3825    -6.8876     2.9953 O.3    1 <0>      -0.5700
   15 C15       0.6902    -4.6916     1.3802 C.3    1 <0>      -0.1300
   16 C16       0.8224    -3.1860     1.1611 C.3    1 <0>       0.1500
   17 H17       1.0048     1.8381     0.0023 H      1 <0>       0.0500
   18 H18      -0.5450     1.8219    -0.8730 H      1 <0>       0.0500
   19 H19      -0.5280     1.8123     0.9069 H      1 <0>       0.0700
   20 H20      -0.4044    -0.4986     0.7308 H      1 <0>       0.4000
   21 H21       1.1838     1.0946    -2.0910 H      1 <0>       0.1200
   22 H22       2.2488    -0.1145    -3.9520 H      1 <0>       0.1200
   23 H23       2.2753    -2.5732    -3.9741 H      1 <0>       0.1200
   24 H24       1.2369    -3.8382    -2.1355 H      1 <0>       0.1200
   25 H25      -1.9379    -2.6656     0.6872 H      1 <0>       0.0500
   26 H26      -1.7811    -2.9440    -1.0664 H      1 <0>       0.0700
   27 H27      -2.5340    -4.9915     0.1959 H      1 <0>       0.0700
   28 H28      -1.0005    -5.2321    -0.6764 H      1 <0>       0.0700
   29 H29      -1.2594    -4.5173     2.2801 H      1 <0>       0.0800
   30 H30      -1.9784    -6.8492     1.6837 H      1 <0>       0.0400
   31 H31      -0.3824    -7.1150     0.9418 H      1 <0>       0.0400
   32 H32      -0.4337    -7.8263     3.2215 H      1 <0>       0.3800
   33 H33       1.1873    -4.9704     2.3093 H      1 <0>       0.0700
   34 H34       1.1530    -5.2199     0.5467 H      1 <0>       0.0600
   35 H35       1.8702    -2.9303     1.0036 H      1 <0>       0.0700
   36 H36       0.4416    -2.6549     2.0334 H      1 <0>       0.0500
@<TRIPOS>BOND
   1    1    2 1
   2    1   17 1
   3    1   18 1
   4    1   19 1
   5    2    3 1
   6    2   20 1
   7    3    8 ar
   8    3    4 ar
   9    4    5 ar
  10    4   21 1
  11    5    6 ar
  12    5   22 1
  13    6    7 ar
  14    6   23 1
  15    7    8 ar
  16    7   24 1
  17    8    9 1
  18    9   16 1
  19    9   10 1
  20   10   11 1
  21   10   25 1
  22   10   26 1
  23   11   12 1
  24   11   27 1
  25   11   28 1
  26   12   13 1
  27   12   15 1
  28   12   29 1
  29   13   14 1
  30   13   30 1
  31   13   31 1
  32   14   32 1
  33   15   16 1
  34   15   33 1
  35   15   34 1
  36   16   35 1
  37   16   36 1


@<TRIPOS>MOLECULE
OC1=CC=C(SC2=CC=C(O)C=C2)C=C1
  25   26    0    0    0
SMALL
USER_CHARGES
NO_NAME
@<TRIPOS>ATOM
    1 O1       -0.0365     1.3554     0.0113 O.3    1 <0>      -0.5000
    2 C2       -0.0137    -0.0043     0.0034 C.ar   1 <0>       0.1000
    3 C3       -0.0103    -0.7044     1.2010 C.ar   1 <0>      -0.1300
    4 C4        0.0134    -2.0850     1.1941 C.ar   1 <0>      -0.1100
    5 C5        0.0334    -2.7729    -0.0127 C.ar   1 <0>      -0.1100
    6 S6        0.0631    -4.5346    -0.0229 S.3    1 <0>       0.0000
    7 C7        0.2262    -4.9382     1.6845 C.ar   1 <0>      -0.1600
    8 C8       -0.9028    -5.2219     2.4427 C.ar   1 <0>      -0.0500
    9 C9       -0.7737    -5.5385     3.7805 C.ar   1 <0>      -0.1600
   10 C10       0.4827    -5.5734     4.3674 C.ar   1 <0>       0.1400
   11 O11       0.6087    -5.8854     5.6851 O.3    1 <0>      -0.5000
   12 C12       1.6108    -5.2908     3.6112 C.ar   1 <0>      -0.1500
   13 C13       1.4845    -4.9786     2.2720 C.ar   1 <0>      -0.0500
   14 C14       0.0296    -2.0708    -1.2115 C.ar   1 <0>      -0.0800
   15 C15       0.0006    -0.6903    -1.2023 C.ar   1 <0>      -0.1300
   16 H16      -0.9264     1.7338     0.0116 H      1 <0>       0.3900
   17 H17      -0.0258    -0.1694     2.1390 H      1 <0>       0.1300
   18 H18       0.0167    -2.6298     2.1266 H      1 <0>       0.1300
   19 H19      -1.8811    -5.1944     1.9860 H      1 <0>       0.1400
   20 H20      -1.6513    -5.7587     4.3702 H      1 <0>       0.1400
   21 H21       0.7193    -6.8306     5.8567 H      1 <0>       0.4000
   22 H22       2.5886    -5.3186     4.0690 H      1 <0>       0.1400
   23 H23       2.3629    -4.7586     1.6834 H      1 <0>       0.1400
   24 H24       0.0451    -2.6045    -2.1502 H      1 <0>       0.1300
   25 H25      -0.0024    -0.1442    -2.1341 H      1 <0>       0.1400
@<TRIPOS>BOND
   1    1    2 1
   2    1   16 1
   3    2   15 ar
   4    2    3 ar
   5    3    4 ar
   6    3   17 1
   7    4    5 ar
   8    4   18 1
   9    5    6 1
  10    5   14 ar
  11    6    7 1
  12    7   13 ar
  13    7    8 ar
  14    8    9 ar
  15    8   19 1
  16    9   10 ar
  17    9   20 1
  18   10   11 1
  19   10   12 ar
  20   11   21 1
  21   12   13 ar
  22   12   22 1
  23   13   23 1
  24   14   15 ar
  25   14   24 1
  26   15   25 1






@<TRIPOS>MOLECULE
OCC1=CC=C(OC2=CC=CC=C2)N=C1
  26   27    0    0    0
SMALL
NO_CHARGES


@<TRIPOS>ATOM
   1 O1            -0.1177     1.5745     0.0498 O.3     
   2 C2            -0.0565     0.1471     0.0178 C.3     
   3 C3            -1.4543    -0.4159     0.0242 C.ar    
   4 C4            -2.0911    -0.6987     1.2246 C.ar    
   5 C5            -3.3750    -1.2143     1.1854 C.ar    
   6 C6            -3.9792    -1.4301    -0.0465 C.ar    
   7 O7            -5.2376    -1.9347    -0.0985 O.3     
   8 C8            -5.8337    -2.0382    -1.3153 C.ar    
   9 C9            -5.4825    -3.0683    -2.1759 C.ar    
  10 C10           -6.0899    -3.1712    -3.4123 C.ar    
  11 C11           -7.0468    -2.2485    -3.7927 C.ar    
  12 C12           -7.3986    -1.2209    -2.9370 C.ar    
  13 C13           -6.7986    -1.1171    -1.6970 C.ar    
  14 N14           -3.3396    -1.1479    -1.1696 N.ar    
  15 C15           -2.1176    -0.6507    -1.1641 C.ar    
  16 H16            0.7479     2.0054     0.0476 H       
  17 H17            0.4605    -0.1742    -0.8864 H       
  18 H18            0.4843    -0.2130     0.8930 H       
  19 H19           -1.5959    -0.5207     2.1677 H       
  20 H20           -3.8998    -1.4461     2.1004 H       
  21 H21           -4.7346    -3.7889    -1.8795 H       
  22 H22           -5.8169    -3.9729    -4.0825 H       
  23 H23           -7.5200    -2.3303    -4.7601 H       
  24 H24           -8.1463    -0.5015    -3.2365 H       
  25 H25           -7.0740    -0.3146    -1.0289 H       
  26 H26           -1.6266    -0.4322    -2.1009 H       
@<TRIPOS>BOND
   1    1    2 1
   2    1   16 1
   3    2    3 1
   4    2   17 1
   5    2   18 1
   6    3   15 ar
   7    3    4 ar
   8    4    5 ar
   9    4   19 1
  10    5    6 ar
  11    5   20 1
  12    6    7 1
  13    6   14 ar
  14    7    8 1
  15    8   13 ar
  16    8    9 ar
  17    9   10 ar
  18    9   21 1
  19   10   11 ar
  20   10   22 1
  21   11   12 ar
  22   11   23 1
  23   12   13 ar
  24   12   24 1
  25   13   25 1
  26   14   15 ar
  27   15   26 1




@<TRIPOS>MOLECULE
O=C(NCCC3=CC=CC=C3)CN2C=NC1=CC=CC=C12
38    40    1     0     0
SMALL
USER_CHARGES
@<TRIPOS>ATOM
1      O1      0.0021   -0.0041    0.0020 O.2      1 ZINC000000107144   -0.5100
2      C2     -0.0144    1.2086    0.0087 C.2      1 ZINC000000107144    0.4900
3      C3      1.2803    1.9798    0.0005 C.3      1 ZINC000000107144    0.0900
4      N4      2.4066    1.0431   -0.0153 N.pl3    1 ZINC000000107144   -0.4800
5      C5      3.0942    0.5905    1.0678 C.2      1 ZINC000000107144    0.2700
6      N6      4.0317   -0.2295    0.6918 N.2      1 ZINC000000107144   -0.4900
7      C7      4.0098   -0.3593   -0.6597 C.ar     1 ZINC000000107144    0.0500
8      C8      4.7745   -1.0932   -1.5697 C.ar     1 ZINC000000107144   -0.0600
9      C9      4.5037   -1.0137   -2.9066 C.ar     1 ZINC000000107144   -0.1300
10     C10     3.4741   -0.2095   -3.3735 C.ar     1 ZINC000000107144   -0.1000
11     C11     2.7062    0.5238   -2.4936 C.ar     1 ZINC000000107144   -0.1100
12     C12     2.9631    0.4513   -1.1316 C.ar     1 ZINC000000107144    0.0600
13     N13    -1.1906    1.8666    0.0178 N.am     1 ZINC000000107144   -0.7300
14     C14    -2.4492    1.1169    0.0197 C.3      1 ZINC000000107144    0.1200
15     C15    -3.6255    2.0952    0.0306 C.3      1 ZINC000000107144   -0.0900
16     C16    -4.9203    1.3241    0.0326 C.ar     1 ZINC000000107144   -0.0900
17     C17    -5.5169    0.9720   -1.1637 C.ar     1 ZINC000000107144   -0.1100
18     C18    -6.7045    0.2646   -1.1619 C.ar     1 ZINC000000107144   -0.1200
19     C19    -7.2953   -0.0911    0.0361 C.ar     1 ZINC000000107144   -0.1200
20     C20    -6.6983    0.2602    1.2324 C.ar     1 ZINC000000107144   -0.1200
21     C21    -5.5084    0.9639    1.2306 C.ar     1 ZINC000000107144   -0.1100
22     H22     1.3211    2.6120   -0.8866 H        1 ZINC000000107144    0.1200
23     H23     1.3381    2.6024    0.8933 H        1 ZINC000000107144    0.1300
24     H24     2.8915    0.8713    2.0908 H        1 ZINC000000107144    0.2100
25     H25     5.5786   -1.7221   -1.2172 H        1 ZINC000000107144    0.1300
26     H26     5.0973   -1.5823   -3.6071 H        1 ZINC000000107144    0.1300
27     H27     3.2728   -0.1571   -4.4333 H        1 ZINC000000107144    0.1300
28     H28     1.9061    1.1485   -2.8623 H        1 ZINC000000107144    0.1200
29     H29    -1.2037    2.8365    0.0232 H        1 ZINC000000107144    0.4000
30     H30    -2.5027    0.4944   -0.8734 H        1 ZINC000000107144    0.0700
31     H31    -2.4943    0.4847    0.9065 H        1 ZINC000000107144    0.0700
32     H32    -3.5721    2.7178    0.9238 H        1 ZINC000000107144    0.0800
33     H33    -3.5805    2.7274   -0.8561 H        1 ZINC000000107144    0.0800
34     H34    -5.0553    1.2499   -2.0997 H        1 ZINC000000107144    0.1200
35     H35    -7.1710   -0.0098   -2.0965 H        1 ZINC000000107144    0.1200
36     H36    -8.2236   -0.6431    0.0375 H        1 ZINC000000107144    0.1200
37     H37    -7.1601   -0.0174    2.1684 H        1 ZINC000000107144    0.1200
38     H38    -5.0420    1.2383    2.1652 H        1 ZINC000000107144    0.1200
@<TRIPOS>BOND
1     1     2     2
2     2     3     1
3     2     13    am
4     3     4     1
5     3     22    1
6     3     23    1
7     4     12    1
8     4     5     1
9     5     6     2
10    5     24    1
11    6     7     1
12    7     12    ar
13    7     8     ar
14    8     9     ar
15    8     25    1
16    9     10    ar
17    9     26    1
18    10    11    ar
19    10    27    1
20    11    12    ar
21    11    28    1
22    13    14    1
23    13    29    1
24    14    15    1
25    14    30    1
26    14    31    1
27    15    16    1
28    15    32    1
29    15    33    1
30    16    21    ar
31    16    17    ar
32    17    18    ar
33    17    34    1
34    18    19    ar
35    18    35    1
36    19    20    ar
37    19    36    1
38    20    21    ar
39    20    37    1
40    21    38    1
@<TRIPOS>SUBSTRUCTURE
1   ZINC000000107144 1     RESIDUE    1   A     ZIN   1


@<TRIPOS>MOLECULE
CC1=CC=C(C[NH+]2CCNC([C@H]2CC(OCC)=O)=O)C=C1
43    44    1     0     0
SMALL
USER_CHARGES
@<TRIPOS>ATOM
1      C1      6.0236    0.7832    2.2053 C.3      1 ZINC000055422027   -0.1500
2      C2      5.5876   -0.6806    2.2961 C.3      1 ZINC000055422027    0.0700
3      O3      4.1375   -0.7549    2.2905 O.3      1 ZINC000055422027   -0.3600
4      C4      3.5898   -1.9781    2.3650 C.2      1 ZINC000055422027    0.4600
5      O5      4.2985   -2.9543    2.4327 O.2      1 ZINC000055422027   -0.4800
6      C6      2.0908   -2.1337    2.3643 C.3      1 ZINC000055422027   -0.1000
7      C7      1.7325   -3.6209    2.3347 C.3      1 ZINC000055422027    0.0800
8      H8      0.6500   -3.7310    2.2706 H        1 ZINC000055422027    0.0900
9      C9      2.2272   -4.2783    3.5920 C.2      1 ZINC000055422027    0.5400
10     O10     2.0748   -3.7014    4.6479 O.2      1 ZINC000055422027   -0.5500
11     N11     2.8278   -5.4729    3.5956 N.am     1 ZINC000055422027   -0.7100
12     C12     3.0909   -6.2326    2.3768 C.3      1 ZINC000055422027    0.1200
13     C13     2.2151   -5.7125    1.2354 C.3      1 ZINC000055422027    0.0300
14     N14     2.3569   -4.2496    1.1629 N.3      1 ZINC000055422027   -0.5100
15     C15     1.7794   -3.7257   -0.0821 C.3      1 ZINC000055422027    0.0800
16     C16     2.7132   -4.0139   -1.2292 C.ar     1 ZINC000055422027   -0.0800
17     C17     3.6956   -3.1018   -1.5666 C.ar     1 ZINC000055422027   -0.0900
18     C18     4.5523   -3.3661   -2.6188 C.ar     1 ZINC000055422027   -0.1200
19     C19     4.4268   -4.5428   -3.3334 C.ar     1 ZINC000055422027   -0.0800
20     C20     5.3603   -4.8307   -4.4809 C.3      1 ZINC000055422027   -0.1200
21     C21     3.4452   -5.4555   -2.9952 C.ar     1 ZINC000055422027   -0.1200
22     C22     2.5911   -5.1929   -1.9405 C.ar     1 ZINC000055422027   -0.1100
23     H23     5.6283    1.3337    3.0590 H        1 ZINC000055422027    0.0700
24     H24     7.1122    0.8390    2.2095 H        1 ZINC000055422027    0.0800
25     H25     5.6409    1.2197    1.2827 H        1 ZINC000055422027    0.0700
26     H26     5.9829   -1.2310    1.4423 H        1 ZINC000055422027    0.0700
27     H27     5.9703   -1.1171    3.2186 H        1 ZINC000055422027    0.0700
28     H28     1.6778   -1.6784    3.2645 H        1 ZINC000055422027    0.1200
29     H29     1.6749   -1.6422    1.4849 H        1 ZINC000055422027    0.1100
30     H30     3.1013   -5.8515    4.4457 H        1 ZINC000055422027    0.4000
31     H31     4.1409   -6.1266    2.1041 H        1 ZINC000055422027    0.0800
32     H32     2.8691   -7.2854    2.5519 H        1 ZINC000055422027    0.0800
33     H33     2.5378   -6.1584    0.2946 H        1 ZINC000055422027    0.1000
34     H34     1.1736   -5.9710    1.4268 H        1 ZINC000055422027    0.0500
35     H35     0.8182   -4.2054   -0.2668 H        1 ZINC000055422027    0.0500
36     H36     1.6366   -2.6489    0.0085 H        1 ZINC000055422027    0.0900
37     H37     3.7937   -2.1825   -1.0083 H        1 ZINC000055422027    0.1200
38     H38     5.3193   -2.6532   -2.8829 H        1 ZINC000055422027    0.1200
39     H39     6.2373   -5.3621   -4.1112 H        1 ZINC000055422027    0.0700
40     H40     4.8479   -5.4457   -5.2206 H        1 ZINC000055422027    0.0700
41     H41     5.6710   -3.8925   -4.9407 H        1 ZINC000055422027    0.0700
42     H42     3.3474   -6.3750   -3.5532 H        1 ZINC000055422027    0.1200
43     H43     1.8242   -5.9060   -1.6762 H        1 ZINC000055422027    0.1200
@<TRIPOS>BOND
1     1     2     1
2     1     23    1
3     1     24    1
4     1     25    1
5     2     3     1
6     2     26    1
7     2     27    1
8     3     4     1
9     4     5     2
10    4     6     1
11    6     7     1
12    6     28    1
13    6     29    1
14    7     8     1
15    7     14    1
16    7     9     1
17    9     10    2
18    9     11    am
19    11    12    1
20    11    30    1
21    12    13    1
22    12    31    1
23    12    32    1
24    13    14    1
25    13    33    1
26    13    34    1
27    14    15    1
28    15    16    1
29    15    35    1
30    15    36    1
31    16    22    ar
32    16    17    ar
33    17    18    ar
34    17    37    1
35    18    19    ar
36    18    38    1
37    19    20    1
38    19    21    ar
39    20    39    1
40    20    40    1
41    20    41    1
42    21    22    ar
43    21    42    1
44    22    43    1
@<TRIPOS>SUBSTRUCTURE
1   ZINC000055422027 1     RESIDUE    1   A     ZIN   1


@<TRIPOS>MOLECULE
FC1=C(C2=NCC4=C(N=C(NC5=CC(OC)=C(C(O)=O)C=C5)N=C4)C3=CC=C(Cl)C=C23)C(OC)=CC=C1
56    60    1     0     0
SMALL
USER_CHARGES
@<TRIPOS>ATOM
1      C1      0.7331    1.4727    0.4104 C.3      1 ZINC000040939534    0.0200
2      O2      0.6387    0.0476    0.3638 O.3      1 ZINC000040939534   -0.3000
3      C3     -0.5931   -0.4945    0.5403 C.ar     1 ZINC000040939534    0.1800
4      C4     -1.6905    0.3256    0.7483 C.ar     1 ZINC000040939534   -0.2200
5      C5     -2.9448   -0.2260    0.9285 C.ar     1 ZINC000040939534   -0.0400
6      C6     -3.1162   -1.5987    0.9025 C.ar     1 ZINC000040939534   -0.1900
7      C7     -2.0328   -2.4317    0.6963 C.ar     1 ZINC000040939534    0.1700
8      F8     -2.2041   -3.7716    0.6715 F        1 ZINC000040939534   -0.1200
9      C9     -0.7607   -1.8847    0.5071 C.ar     1 ZINC000040939534   -0.1200
10     C10     0.4033   -2.7688    0.2858 C.2      1 ZINC000040939534    0.2700
11     N11     0.6854   -3.0773   -0.9287 N.2      1 ZINC000040939534   -0.4700
12     C12     1.8050   -3.9448   -1.2787 C.3      1 ZINC000040939534    0.1000
13     C13     1.5517   -5.3279   -0.7498 C.ar     1 ZINC000040939534   -0.2500
14     C14     1.4108   -6.3826   -1.6378 C.ar     1 ZINC000040939534    0.2100
15     N15     1.1775   -7.5965   -1.1649 N.ar     1 ZINC000040939534   -0.5300
16     C16     1.0767   -7.8090    0.1391 C.ar     1 ZINC000040939534    0.5700
17     N17     0.8257   -9.0934    0.5956 N.pl3    1 ZINC000040939534   -0.6300
18     C18     0.7986  -10.1574   -0.3006 C.ar     1 ZINC000040939534    0.1800
19     C19     1.6444  -10.1532   -1.4088 C.ar     1 ZINC000040939534   -0.1600
20     C20     1.6264  -11.1910   -2.2942 C.ar     1 ZINC000040939534   -0.0300
21     C21     0.7557  -12.2696   -2.0942 C.ar     1 ZINC000040939534   -0.1800
22     C22     0.7356  -13.3869   -3.0464 C.2      1 ZINC000040939534    0.5200
23     O23     1.4808  -13.3770   -4.0173 O.co2    1 ZINC000040939534   -0.7000
24     O24    -0.0263  -14.3282   -2.8693 O.co2    1 ZINC000040939534   -0.6700
25     C25    -0.0986  -12.2782   -0.9778 C.ar     1 ZINC000040939534    0.1700
26     O26    -0.9451  -13.3181   -0.7750 O.3      1 ZINC000040939534   -0.2600
27     C27    -1.7830  -13.2568    0.3810 C.3      1 ZINC000040939534    0.0200
28     C28    -0.0673  -11.2225   -0.0843 C.ar     1 ZINC000040939534   -0.2500
29     N29     1.2095   -6.8290    1.0167 N.ar     1 ZINC000040939534   -0.5600
30     C30     1.4531   -5.5787    0.6099 C.ar     1 ZINC000040939534    0.2500
31     C31     1.6238   -4.5217    1.6305 C.ar     1 ZINC000040939534   -0.0200
32     C32     2.3075   -4.8670    2.8026 C.ar     1 ZINC000040939534   -0.0700
33     C33     2.5095   -3.9349    3.7965 C.ar     1 ZINC000040939534   -0.1000
34     C34     2.0361   -2.6419    3.6425 C.ar     1 ZINC000040939534   -0.0200
35     Cl35    2.2955   -1.4692    4.8959 Cl       1 ZINC000040939534   -0.0600
36     C36     1.3599   -2.2849    2.4955 C.ar     1 ZINC000040939534   -0.0800
37     C37     1.1454   -3.2169    1.4752 C.ar     1 ZINC000040939534   -0.0600
38     H38     1.7692    1.7735    0.2552 H        1 ZINC000040939534    0.1000
39     H39     0.1085    1.9040   -0.3719 H        1 ZINC000040939534    0.0600
40     H40     0.3935    1.8277    1.3834 H        1 ZINC000040939534    0.0600
41     H41    -1.5654    1.3981    0.7700 H        1 ZINC000040939534    0.1400
42     H42    -3.7963    0.4182    1.0910 H        1 ZINC000040939534    0.1400
43     H43    -4.1001   -2.0208    1.0443 H        1 ZINC000040939534    0.1400
44     H44     1.9092   -3.9839   -2.3630 H        1 ZINC000040939534    0.1100
45     H45     2.7214   -3.5502   -0.8397 H        1 ZINC000040939534    0.0800
46     H46     1.4900   -6.2160   -2.7019 H        1 ZINC000040939534    0.1800
47     H47     0.6690   -9.2506    1.5398 H        1 ZINC000040939534    0.4200
48     H48     2.3173   -9.3235   -1.5675 H        1 ZINC000040939534    0.1300
49     H49     2.2843  -11.1806   -3.1506 H        1 ZINC000040939534    0.1400
50     H50    -2.4089  -14.1481    0.4238 H        1 ZINC000040939534    0.0900
51     H51    -1.1635  -13.2045    1.2763 H        1 ZINC000040939534    0.0500
52     H52    -2.4155  -12.3709    0.3247 H        1 ZINC000040939534    0.0500
53     H53    -0.7204  -11.2224    0.7758 H        1 ZINC000040939534    0.1200
54     H54     2.6794   -5.8731    2.9287 H        1 ZINC000040939534    0.1500
55     H55     3.0372   -4.2125    4.6971 H        1 ZINC000040939534    0.1400
56     H56     0.9938   -1.2751    2.3823 H        1 ZINC000040939534    0.1400
@<TRIPOS>BOND
1     1     2     1
2     1     38    1
3     1     39    1
4     1     40    1
5     2     3     1
6     3     9     ar
7     3     4     ar
8     4     5     ar
9     4     41    1
10    5     6     ar
11    5     42    1
12    6     7     ar
13    6     43    1
14    7     8     1
15    7     9     ar
16    9     10    1
17    10    37    1
18    10    11    2
19    11    12    1
20    12    13    1
21    12    44    1
22    12    45    1
23    13    30    ar
24    13    14    ar
25    14    15    ar
26    14    46    1
27    15    16    ar
28    16    17    1
29    16    29    ar
30    17    18    1
31    17    47    1
32    18    28    ar
33    18    19    ar
34    19    20    ar
35    19    48    1
36    20    21    ar
37    20    49    1
38    21    22    1
39    21    25    ar
40    22    23    ar
41    22    24    ar
42    25    26    1
43    25    28    ar
44    26    27    1
45    27    50    1
46    27    51    1
47    27    52    1
48    28    53    1
49    29    30    ar
50    30    31    1
51    31    37    ar
52    31    32    ar
53    32    33    ar
54    32    54    1
55    33    34    ar
56    33    55    1
57    34    35    1
58    34    36    ar
59    36    37    ar
60    36    56    1
@<TRIPOS>SUBSTRUCTURE
1   ZINC000040939534 1     RESIDUE    1   A     ZIN   1


@<TRIPOS>MOLECULE
C1=CC(=C(C(=C1)F)C(=O)N2C(=NC(=N2)NC3=CC=C(C=C3)S(=O)(=O)N)N)F
  39   41    0    0    0
SMALL
USER_CHARGES
NO_NAME
@<TRIPOS>ATOM
    1 N1        0.3043     1.2041    -0.2951 N.pl3  1 <0>      -0.7900
    2 C2        0.1983    -0.1698    -0.2306 C.2    1 <0>       0.5900
    3 N3       -0.9185    -0.8574    -0.1342 N.2    1 <0>      -0.5900
    4 C4       -0.6415    -2.1668    -0.0956 C.2    1 <0>       0.5200
    5 N5       -1.5838    -3.1884     0.0039 N.pl3  1 <0>      -0.6200
    6 C6       -2.9405    -2.8778     0.1286 C.ar   1 <0>       0.2300
    7 C7       -3.7863    -3.7237     0.8349 C.ar   1 <0>      -0.1700
    8 C8       -5.1266    -3.4138     0.9561 C.ar   1 <0>       0.0100
    9 C9       -5.6271    -2.2630     0.3750 C.ar   1 <0>      -0.7000
   10 S10      -7.3379    -1.8714     0.5322 S.o2   1 <0>       2.7000
   11 N11      -7.5079    -0.9590     1.9036 N.am   1 <0>      -1.2500
   12 O12      -7.6562    -1.0188    -0.5591 O.2    1 <0>      -0.9600
   13 O13      -8.0093    -3.0988     0.7810 O.2    1 <0>      -0.9600
   14 C14      -4.7880    -1.4187    -0.3288 C.ar   1 <0>       0.0100
   15 C15      -3.4454    -1.7194    -0.4486 C.ar   1 <0>      -0.1500
   16 N16       0.6567    -2.3355    -0.1668 N.2    1 <0>      -0.3500
   17 N17       1.2325    -1.0581    -0.2615 N.am   1 <0>      -0.4000
   18 C18       2.5453    -0.7678    -0.3550 C.2    1 <0>       0.6200
   19 O19       2.9140     0.3903    -0.3419 O.2    1 <0>      -0.4700
   20 C20       3.5338    -1.8545    -0.4730 C.ar   1 <0>      -0.2000
   21 C21       3.8399    -2.3946    -1.7277 C.ar   1 <0>       0.1700
   22 F22       3.2303    -1.9208    -2.8363 F      1 <0>      -0.1200
   23 C23       4.7681    -3.4135    -1.8288 C.ar   1 <0>      -0.1600
   24 C24       5.3935    -3.9000    -0.6951 C.ar   1 <0>      -0.0300
   25 C25       5.0972    -3.3725     0.5487 C.ar   1 <0>      -0.1600
   26 C26       4.1762    -2.3489     0.6682 C.ar   1 <0>       0.1700
   27 F27       3.8886    -1.8348     1.8840 F      1 <0>      -0.1200
   28 H28       1.1773     1.6202    -0.3698 H      1 <0>       0.4300
   29 H29      -0.4945     1.7538    -0.2696 H      1 <0>       0.4300
   30 H30      -1.2980    -4.1152    -0.0133 H      1 <0>       0.4300
   31 H31      -3.3962    -4.6230     1.2883 H      1 <0>       0.1400
   32 H32      -5.7847    -4.0710     1.5050 H      1 <0>       0.1500
   33 H33      -6.7306    -0.7438     2.4424 H      1 <0>       0.4200
   34 H34      -8.3848    -0.6397     2.1681 H      1 <0>       0.4200
   35 H35      -5.1821    -0.5210    -0.7816 H      1 <0>       0.1500
   36 H36      -2.7906    -1.0596    -0.9983 H      1 <0>       0.1600
   37 H37       5.0056    -3.8313    -2.7960 H      1 <0>       0.1500
   38 H38       6.1173    -4.6969    -0.7815 H      1 <0>       0.1500
   39 H39       5.5901    -3.7587     1.4287 H      1 <0>       0.1500
@<TRIPOS>BOND
   1    1    2 1
   2    1   28 1
   3    1   29 1
   4    2   17 1
   5    2    3 2
   6    3    4 1
   7    4    5 1
   8    4   16 2
   9    5    6 1
  10    5   30 1
  11    6   15 ar
  12    6    7 ar
  13    7    8 ar
  14    7   31 1
  15    8    9 ar
  16    8   32 1
  17    9   10 1
  18    9   14 ar
  19   10   11 am
  20   10   12 2
  21   10   13 2
  22   11   33 1
  23   11   34 1
  24   14   15 ar
  25   14   35 1
  26   15   36 1
  27   16   17 1
  28   17   18 am
  29   18   19 2
  30   18   20 1
  31   20   26 ar
  32   20   21 ar
  33   21   22 1
  34   21   23 ar
  35   23   24 ar
  36   23   37 1
  37   24   25 ar
  38   24   38 1
  39   25   26 ar
  40   25   39 1
  41   26   27 1


@<TRIPOS>MOLECULE
COC1=C(C=C2C(=C1)C(=NC=N2)NC3=CC=C(C=C3)NC(=O)C4=CC=CC=C4)OCCCN5CCOCC5
69    73    1     0     0
SMALL
USER_CHARGES
@<TRIPOS>ATOM
1      C1     -0.0373    1.3344   -0.0351 C.3      1 ZINC000022067501    0.0200
2      O2      0.0018   -0.0940   -0.0463 O.3      1 ZINC000022067501   -0.3000
3      C3      0.6282   -0.6862   -1.0980 C.ar     1 ZINC000022067501    0.1100
4      C4      0.6938   -2.0847   -1.1676 C.ar     1 ZINC000022067501    0.1700
5      O5      0.1314   -2.8336   -0.1835 O.3      1 ZINC000022067501   -0.2900
6      C6      0.2314   -4.2534   -0.3112 C.3      1 ZINC000022067501    0.0600
7      C7     -0.4546   -4.9223    0.8816 C.3      1 ZINC000022067501   -0.1200
8      C8     -0.3475   -6.4424    0.7449 C.3      1 ZINC000022067501    0.0600
9      N9     -1.0062   -7.0846    1.8902 N.3      1 ZINC000022067501   -0.5400
10     C10    -0.6055   -6.4480    3.1533 C.3      1 ZINC000022067501    0.0100
11     C11    -1.3586   -7.1070    4.3120 C.3      1 ZINC000022067501    0.0600
12     O12    -1.0954   -8.5128    4.3068 O.3      1 ZINC000022067501   -0.3900
13     C13    -1.4740   -9.1649    3.0916 C.3      1 ZINC000022067501    0.0600
14     C14    -0.7221   -8.5267    1.9206 C.3      1 ZINC000022067501    0.0200
15     C15     1.3220   -2.7078   -2.2232 C.ar     1 ZINC000022067501   -0.1800
16     C16     1.9008   -1.9334   -3.2360 C.ar     1 ZINC000022067501    0.2000
17     N17     2.5239   -2.4917   -4.2857 N.ar     1 ZINC000022067501   -0.5500
18     C18     3.0565   -1.7402   -5.2197 C.ar     1 ZINC000022067501    0.3400
19     N19     3.0159   -0.4176   -5.1895 N.ar     1 ZINC000022067501   -0.5800
20     C20     2.4248    0.2355   -4.1974 C.ar     1 ZINC000022067501    0.4700
21     N21     2.3896    1.6151   -4.1791 N.pl3    1 ZINC000022067501   -0.6400
22     C22     3.0599    2.3453   -5.1670 C.ar     1 ZINC000022067501    0.1300
23     C23     3.6640    3.5546   -4.8473 C.ar     1 ZINC000022067501   -0.1300
24     C24     4.3250    4.2748   -5.8218 C.ar     1 ZINC000022067501   -0.1200
25     C25     4.3858    3.7906   -7.1221 C.ar     1 ZINC000022067501    0.1300
26     N26     5.0564    4.5213   -8.1106 N.am     1 ZINC000022067501   -0.6700
27     C27     4.5930    4.5258   -9.3762 C.2      1 ZINC000022067501    0.5600
28     O28     3.6396    3.8341   -9.6769 O.2      1 ZINC000022067501   -0.5100
29     C29     5.2440    5.3719  -10.3986 C.ar     1 ZINC000022067501   -0.1400
30     C30     6.3424    6.1630  -10.0580 C.ar     1 ZINC000022067501   -0.0900
31     C31     6.9453    6.9504  -11.0170 C.ar     1 ZINC000022067501   -0.1300
32     C32     6.4635    6.9571  -12.3140 C.ar     1 ZINC000022067501   -0.0900
33     C33     5.3748    6.1756  -12.6582 C.ar     1 ZINC000022067501   -0.1300
34     C34     4.7665    5.3789  -11.7103 C.ar     1 ZINC000022067501   -0.0600
35     C35     3.7818    2.5815   -7.4419 C.ar     1 ZINC000022067501   -0.1000
36     C36     3.1260    1.8582   -6.4662 C.ar     1 ZINC000022067501   -0.0900
37     C37     1.8309   -0.5203   -3.1585 C.ar     1 ZINC000022067501   -0.1800
38     C38     1.1817    0.0882   -2.0778 C.ar     1 ZINC000022067501   -0.1500
39     H39     0.9801    1.7256   -0.0281 H        1 ZINC000022067501    0.0600
40     H40    -0.5575    1.6906   -0.9243 H        1 ZINC000022067501    0.0600
41     H41    -0.5642    1.6765    0.8556 H        1 ZINC000022067501    0.1100
42     H42    -0.2542   -4.5702   -1.2342 H        1 ZINC000022067501    0.0700
43     H43     1.2820   -4.5429   -0.3354 H        1 ZINC000022067501    0.0700
44     H44     0.0310   -4.6054    1.8046 H        1 ZINC000022067501    0.0800
45     H45    -1.5051   -4.6327    0.9058 H        1 ZINC000022067501    0.0900
46     H46    -0.8331   -6.7593   -0.1781 H        1 ZINC000022067501    0.0800
47     H47     0.7031   -6.7319    0.7207 H        1 ZINC000022067501    0.0400
48     H48     0.4675   -6.5722    3.2992 H        1 ZINC000022067501    0.0400
49     H49    -0.8483   -5.3860    3.1187 H        1 ZINC000022067501    0.0900
50     H50    -1.0226   -6.6773    5.2557 H        1 ZINC000022067501    0.1000
51     H51    -2.4288   -6.9367    4.1943 H        1 ZINC000022067501    0.0600
52     H52    -1.2215  -10.2235    3.1527 H        1 ZINC000022067501    0.1000
53     H53    -2.5475   -9.0544    2.9384 H        1 ZINC000022067501    0.0600
54     H54    -1.0500   -8.9821    0.9861 H        1 ZINC000022067501    0.0900
55     H55     0.3491   -8.6841    2.0468 H        1 ZINC000022067501    0.0400
56     H56     1.3682   -3.7858   -2.2692 H        1 ZINC000022067501    0.1500
57     H57     3.5506   -2.2222   -6.0503 H        1 ZINC000022067501    0.2000
58     H58     1.9004    2.0785   -3.4814 H        1 ZINC000022067501    0.4200
59     H59     3.6161    3.9315   -3.8363 H        1 ZINC000022067501    0.1300
60     H60     4.7947    5.2151   -5.5732 H        1 ZINC000022067501    0.1300
61     H61     5.8544    5.0242   -7.8845 H        1 ZINC000022067501    0.4100
62     H62     6.7192    6.1590   -9.0459 H        1 ZINC000022067501    0.1300
63     H63     7.7950    7.5633  -10.7547 H        1 ZINC000022067501    0.1300
64     H64     6.9392    7.5753  -13.0610 H        1 ZINC000022067501    0.1300
65     H65     5.0035    6.1856  -13.6723 H        1 ZINC000022067501    0.1300
66     H66     3.9170    4.7691  -11.9803 H        1 ZINC000022067501    0.1400
67     H67     3.8288    2.2053   -8.4532 H        1 ZINC000022067501    0.1400
68     H68     2.6564    0.9179   -6.7148 H        1 ZINC000022067501    0.1500
69     H69     1.1217    1.1649   -2.0172 H        1 ZINC000022067501    0.1400
@<TRIPOS>BOND
1     1     2     1
2     1     39    1
3     1     40    1
4     1     41    1
5     2     3     1
6     3     38    ar
7     3     4     ar
8     4     5     1
9     4     15    ar
10    5     6     1
11    6     7     1
12    6     42    1
13    6     43    1
14    7     8     1
15    7     44    1
16    7     45    1
17    8     9     1
18    8     46    1
19    8     47    1
20    9     14    1
21    9     10    1
22    10    11    1
23    10    48    1
24    10    49    1
25    11    12    1
26    11    50    1
27    11    51    1
28    12    13    1
29    13    14    1
30    13    52    1
31    13    53    1
32    14    54    1
33    14    55    1
34    15    16    ar
35    15    56    1
36    16    37    ar
37    16    17    ar
38    17    18    ar
39    18    19    ar
40    18    57    1
41    19    20    ar
42    20    21    1
43    20    37    ar
44    21    22    1
45    21    58    1
46    22    36    ar
47    22    23    ar
48    23    24    ar
49    23    59    1
50    24    25    ar
51    24    60    1
52    25    26    1
53    25    35    ar
54    26    27    am
55    26    61    1
56    27    28    2
57    27    29    1
58    29    34    ar
59    29    30    ar
60    30    31    ar
61    30    62    1
62    31    32    ar
63    31    63    1
64    32    33    ar
65    32    64    1
66    33    34    ar
67    33    65    1
68    34    66    1
69    35    36    ar
70    35    67    1
71    36    68    1
72    37    38    ar
73    38    69    1
@<TRIPOS>SUBSTRUCTURE
1   ZINC000022067501 1     RESIDUE    1   A     ZIN   1


@<TRIPOS>MOLECULE
CC12C(C(CC(O1)N3C4=CC=CC=C4C5=C6C(=C7C8=CC=CC=C8N2C7=C53)CNC6=O)NC)OC
  62   69    0    0    0
SMALL
USER_CHARGES
NO_NAME
@<TRIPOS>ATOM
    1 C1       -0.9661     1.0031     0.4683 C.3    1 <0>      -0.0500
    2 N2        0.0189     0.0032     0.0346 N.4    1 <0>      -0.5200
    3 H3       -0.4575    -0.7682    -0.4082 H      1 <0>       0.4300
    4 H4        0.6591     0.4245    -0.6217 H      1 <0>       0.4300
    5 C5        0.7653    -0.4868     1.2011 C.3    1 <0>      -0.0100
    6 H6        0.4030     0.0058     2.1034 H      1 <0>       0.1600
    7 C7        2.2595    -0.1983     1.0181 C.3    1 <0>      -0.1800
    8 C8        2.7619    -0.9023    -0.2361 C.3    1 <0>       0.3000
    9 H9        3.8508    -0.8586    -0.2138 H      1 <0>       0.1600
   10 O10       2.4012    -2.2646    -0.2735 O.3    1 <0>      -0.3200
   11 C11       1.0934    -2.6719     0.0586 C.3    1 <0>       0.3300
   12 C12       1.1521    -4.1700     0.3640 C.3    1 <0>      -0.1700
   13 C13       0.5850    -2.0035     1.3313 C.3    1 <0>       0.0400
   14 H14       1.1399    -2.3845     2.1886 H      1 <0>       0.1400
   15 O15      -0.8050    -2.2900     1.4976 O.3    1 <0>      -0.3600
   16 C16      -1.2299    -2.3358     2.8612 C.3    1 <0>       0.0200
   17 N17       0.1539    -2.4960    -1.0500 N.pl3  1 <0>      -0.5100
   18 C18      -0.9555    -3.2665    -1.3051 C.ar   1 <0>       0.1500
   19 C19      -1.5981    -2.7707    -2.4611 C.ar   1 <0>      -0.1000
   20 C20      -2.7601    -3.3595    -2.9591 C.ar   1 <0>      -0.0500
   21 C21      -3.2512    -4.4544    -2.2672 C.ar   1 <0>      -0.1300
   22 C22      -2.6226    -4.9436    -1.1358 C.ar   1 <0>      -0.0700
   23 C23      -1.4695    -4.3706    -0.6261 C.ar   1 <0>      -0.1300
   24 C24      -0.8079    -1.6281    -2.9233 C.ar   1 <0>      -0.0400
   25 C25       0.2584    -1.5088    -2.0185 C.ar   1 <0>       0.0800
   26 C26       1.2121    -0.4989    -2.1905 C.ar   1 <0>       0.0500
   27 C27       1.1050     0.3895    -3.2623 C.ar   1 <0>       0.0100
   28 C28       2.2461     1.2937    -3.1535 C.ar   1 <0>      -0.1100
   29 C29       2.6635     2.3660    -3.9439 C.ar   1 <0>      -0.0300
   30 C30       3.8158     3.0230    -3.5467 C.ar   1 <0>      -0.1400
   31 C31       4.5234     2.6394    -2.4210 C.ar   1 <0>      -0.0600
   32 C32       4.1270     1.5772    -1.6258 C.ar   1 <0>      -0.1400
   33 C33       2.9702     0.8975    -2.0046 C.ar   1 <0>       0.1300
   34 N34       2.3272    -0.1879    -1.4373 N.pl3  1 <0>      -0.5400
   35 C35       0.0235     0.2714    -4.1666 C.ar   1 <0>      -0.1200
   36 C36      -0.9183    -0.7356    -3.9848 C.ar   1 <0>      -0.0300
   37 C37      -1.9244    -0.5868    -5.0999 C.3    1 <0>       0.1400
   38 N38      -1.4787     0.5585    -5.9015 N.am   1 <0>      -0.7200
   39 C39      -0.3518     1.0487    -5.3578 C.2    1 <0>       0.5600
   40 O40       0.2696     2.0011    -5.7892 O.2    1 <0>      -0.5100
   41 H41      -0.4515     1.8364     0.9466 H      1 <0>       0.1200
   42 H42      -1.5200     1.3667    -0.3973 H      1 <0>       0.1300
   43 H43      -1.6578     0.5480     1.1772 H      1 <0>       0.1300
   44 H44       2.4126     0.8763     0.9178 H      1 <0>       0.1200
   45 H45       2.8092    -0.5644     1.8853 H      1 <0>       0.1500
   46 H46       2.0849    -4.3996     0.8789 H      1 <0>       0.1000
   47 H47       0.3096    -4.4447     0.9987 H      1 <0>       0.1000
   48 H48       1.1035    -4.7330    -0.5681 H      1 <0>       0.0900
   49 H49      -2.2962    -2.5584     2.9022 H      1 <0>       0.1100
   50 H50      -0.6761    -3.1126     3.3884 H      1 <0>       0.0600
   51 H51      -1.0416    -1.3715     3.3331 H      1 <0>       0.0500
   52 H52      -3.2535    -2.9798    -3.8415 H      1 <0>       0.1400
   53 H53      -4.1490    -4.9395    -2.6206 H      1 <0>       0.1300
   54 H54      -3.0458    -5.8006    -0.6330 H      1 <0>       0.1300
   55 H55      -0.9887    -4.7625     0.2580 H      1 <0>       0.1400
   56 H56       2.1142     2.6684    -4.8232 H      1 <0>       0.1600
   57 H57       4.1724     3.8577    -4.1318 H      1 <0>       0.1400
   58 H58       5.4152     3.1868    -2.1538 H      1 <0>       0.1400
   59 H59       4.6894     1.2880    -0.7504 H      1 <0>       0.1400
   60 H60      -1.9419    -1.4886    -5.7118 H      1 <0>       0.1100
   61 H61      -2.9148    -0.3933    -4.6879 H      1 <0>       0.1100
   62 H62      -1.9231     0.9040    -6.6914 H      1 <0>       0.4300
@<TRIPOS>BOND
   1    1    2 1
   2    1   41 1
   3    1   42 1
   4    1   43 1
   5    2    3 1
   6    2    4 1
   7    2    5 1
   8    5    6 1
   9    5   13 1
  10    5    7 1
  11    7    8 1
  12    7   44 1
  13    7   45 1
  14    8    9 1
  15    8   34 1
  16    8   10 1
  17   10   11 1
  18   11   12 1
  19   11   13 1
  20   11   17 1
  21   12   46 1
  22   12   47 1
  23   12   48 1
  24   13   14 1
  25   13   15 1
  26   15   16 1
  27   16   49 1
  28   16   50 1
  29   16   51 1
  30   17   25 1
  31   17   18 1
  32   18   23 ar
  33   18   19 ar
  34   19   20 ar
  35   19   24 1
  36   20   21 ar
  37   20   52 1
  38   21   22 ar
  39   21   53 1
  40   22   23 ar
  41   22   54 1
  42   23   55 1
  43   24   36 ar
  44   24   25 ar
  45   25   26 ar
  46   26   34 1
  47   26   27 ar
  48   27   28 1
  49   27   35 ar
  50   28   33 ar
  51   28   29 ar
  52   29   30 ar
  53   29   56 1
  54   30   31 ar
  55   30   57 1
  56   31   32 ar
  57   31   58 1
  58   32   33 ar
  59   32   59 1
  60   33   34 1
  61   35   39 1
  62   35   36 ar
  63   36   37 1
  64   37   38 1
  65   37   60 1
  66   37   61 1
  67   38   39 am
  68   38   62 1
  69   39   40 2


@<TRIPOS>MOLECULE
O=C(C2=C(OC)C=C(O)C=C2O)/C=C/C1=CC=CC=C1
  33   34    0    0    0
SMALL
USER_CHARGES
NO_NAME
@<TRIPOS>ATOM
    1 C1        4.1149    -1.5369     0.0361 C.3    1 <0>       0.0300
    2 O2        2.7569    -1.9811     0.0175 O.3    1 <0>      -0.3200
    3 C3        2.0009    -1.6068    -1.0452 C.ar   1 <0>       0.2100
    4 C4        2.5525    -0.8349    -2.0507 C.ar   1 <0>      -0.3600
    5 C5        1.7800    -0.4502    -3.1394 C.ar   1 <0>       0.1800
    6 O6        2.3289     0.3080    -4.1221 O.3    1 <0>      -0.5100
    7 C7        0.4491    -0.8375    -3.2280 C.ar   1 <0>      -0.3100
    8 C8       -0.1181    -1.6097    -2.2309 C.ar   1 <0>       0.3300
    9 O9       -1.4183    -1.9870    -2.3193 O.3    1 <0>      -0.7000
   10 C10       0.6572    -2.0074    -1.1296 C.ar   1 <0>      -0.3400
   11 C11       0.0620    -2.8290    -0.0641 C.2    1 <0>       0.4800
   12 O12      -0.3916    -2.2971     0.9337 O.2    1 <0>      -0.4800
   13 C13       0.0147    -4.2860    -0.2029 C.2    1 <0>      -0.1700
   14 C14      -0.6234    -5.0315     0.7229 C.2    1 <0>      -0.0700
   15 C15      -0.6709    -6.4957     0.5834 C.ar   1 <0>      -0.0500
   16 C16      -0.0507    -7.1187    -0.5045 C.ar   1 <0>      -0.1100
   17 C17      -0.0992    -8.4911    -0.6278 C.ar   1 <0>      -0.1200
   18 C18      -0.7598    -9.2520     0.3211 C.ar   1 <0>      -0.1200
   19 C19      -1.3760    -8.6430     1.4005 C.ar   1 <0>      -0.1200
   20 C20      -1.3314    -7.2720     1.5411 C.ar   1 <0>      -0.1100
   21 H21       4.6345    -1.9197    -0.8423 H      1 <0>       0.0500
   22 H22       4.1409    -0.4472     0.0274 H      1 <0>       0.0500
   23 H23       4.6052    -1.9048     0.9373 H      1 <0>       0.0900
   24 H24       3.5867    -0.5298    -1.9896 H      1 <0>       0.1100
   25 H25       2.7296    -0.2050    -4.8372 H      1 <0>       0.3800
   26 H26      -0.1445    -0.5346    -4.0779 H      1 <0>       0.1100
   27 H27       0.4907    -4.7638    -1.0464 H      1 <0>       0.1300
   28 H28      -1.0994    -4.5537     1.5664 H      1 <0>       0.1300
   29 H29       0.4646    -6.5263    -1.2461 H      1 <0>       0.1300
   30 H30       0.3792    -8.9737    -1.4673 H      1 <0>       0.1200
   31 H31      -0.7949   -10.3265     0.2185 H      1 <0>       0.1200
   32 H32      -1.8898    -9.2435     2.1366 H      1 <0>       0.1200
   33 H33      -1.8124    -6.7983     2.3841 H      1 <0>       0.1300
@<TRIPOS>BOND
   1    1    2 1
   2    1   21 1
   3    1   22 1
   4    1   23 1
   5    2    3 1
   6    3   10 ar
   7    3    4 ar
   8    4    5 ar
   9    4   24 1
  10    5    6 1
  11    5    7 ar
  12    6   25 1
  13    7    8 ar
  14    7   26 1
  15    8    9 1
  16    8   10 ar
  17   10   11 1
  18   11   12 2
  19   11   13 1
  20   13   14 2
  21   13   27 1
  22   14   15 1
  23   14   28 1
  24   15   20 ar
  25   15   16 ar
  26   16   17 ar
  27   16   29 1
  28   17   18 ar
  29   17   30 1
  30   18   19 ar
  31   18   31 1
  32   19   20 ar
  33   19   32 1
  34   20   33 1


@<TRIPOS>MOLECULE
NC1=CC(CN(C4)CCC4NC2=CC=CC3=C2C=CN=C3)=CC=C1
  47   50    0    0    0
SMALL
USER_CHARGES
NO_NAME
@<TRIPOS>ATOM
    1 N1       -0.0169     1.3925     0.0097 N.pl3  1 <0>      -0.8700
    2 C2        0.0021    -0.0041     0.0020 C.ar   1 <0>       0.2300
    3 C3       -1.1903    -0.7163     0.0038 C.ar   1 <0>      -0.1700
    4 C4       -1.1680    -2.0974    -0.0043 C.ar   1 <0>      -0.0600
    5 C5        0.0396    -2.7708    -0.0142 C.ar   1 <0>      -0.1600
    6 C6        1.2288    -2.0646    -0.0155 C.ar   1 <0>      -0.1100
    7 C7        2.5425    -2.8029    -0.0262 C.3    1 <0>       0.0500
    8 N8        2.9628    -3.0343    -1.4146 N.4    1 <0>      -0.3900
    9 H9        2.2300    -3.5017    -1.9271 H      1 <0>       0.4300
   10 C10       3.3028    -1.7447    -2.0686 C.3    1 <0>       0.0000
   11 C11       4.2225    -2.1727    -3.2397 C.3    1 <0>      -0.1700
   12 C12       5.0448    -3.3303    -2.6283 C.3    1 <0>       0.1400
   13 H13       6.0093    -2.9644    -2.2763 H      1 <0>       0.1200
   14 N14       5.2356    -4.3954    -3.6159 N.pl3  1 <0>      -0.7400
   15 C15       6.3051    -4.3358    -4.5070 C.ar   1 <0>       0.2100
   16 C16       6.4930    -5.3524    -5.4636 C.ar   1 <0>      -0.0600
   17 C17       5.6277    -6.4548    -5.5647 C.ar   1 <0>      -0.1600
   18 C18       5.8769    -7.3966    -6.5172 C.ar   1 <0>       0.0800
   19 N19       6.9082    -7.2988    -7.3448 N.ar   1 <0>      -0.4800
   20 C20       7.7561    -6.2979    -7.3077 C.ar   1 <0>       0.1500
   21 C21       7.5884    -5.2730    -6.3618 C.ar   1 <0>      -0.0800
   22 C22       8.4681    -4.1824    -6.2835 C.ar   1 <0>      -0.1300
   23 C23       8.2635    -3.2125    -5.3487 C.ar   1 <0>      -0.0800
   24 C24       7.1893    -3.2773    -4.4665 C.ar   1 <0>      -0.1800
   25 C25       4.2013    -3.8421    -1.4447 C.3    1 <0>      -0.0200
   26 C26       1.2136    -0.6839    -0.0132 C.ar   1 <0>      -0.1800
   27 H27       0.8165     1.8889     0.0044 H      1 <0>       0.4000
   28 H28      -0.8634     1.8661     0.0163 H      1 <0>       0.4100
   29 H29      -2.1338    -0.1909     0.0118 H      1 <0>       0.1300
   30 H30      -2.0948    -2.6519    -0.0026 H      1 <0>       0.1300
   31 H31       0.0542    -3.8507    -0.0205 H      1 <0>       0.1300
   32 H32       3.2977    -2.2082     0.4877 H      1 <0>       0.1400
   33 H33       2.4257    -3.7599     0.4823 H      1 <0>       0.1400
   34 H34       2.4043    -1.2551    -2.4441 H      1 <0>       0.1400
   35 H35       3.8375    -1.0925    -1.3781 H      1 <0>       0.1300
   36 H36       3.6316    -2.5241    -4.0856 H      1 <0>       0.1000
   37 H37       4.8746    -1.3518    -3.5379 H      1 <0>       0.1200
   38 H38       4.6174    -5.1422    -3.6494 H      1 <0>       0.4000
   39 H39       4.7821    -6.5538    -4.9002 H      1 <0>       0.1300
   40 H40       5.2160    -8.2467    -6.6002 H      1 <0>       0.1500
   41 H41       8.5814    -6.2621    -8.0035 H      1 <0>       0.1700
   42 H42       9.3053    -4.1122    -6.9622 H      1 <0>       0.1400
   43 H43       8.9449    -2.3764    -5.2942 H      1 <0>       0.1300
   44 H44       7.0513    -2.4944    -3.7354 H      1 <0>       0.1200
   45 H45       4.7515    -3.7116    -0.5128 H      1 <0>       0.1500
   46 H46       3.9570    -4.8944    -1.5904 H      1 <0>       0.1400
   47 H47       2.1426    -0.1330    -0.0142 H      1 <0>       0.1300
@<TRIPOS>BOND
   1    1    2 1
   2    1   27 1
   3    1   28 1
   4    2   26 ar
   5    2    3 ar
   6    3    4 ar
   7    3   29 1
   8    4    5 ar
   9    4   30 1
  10    5    6 ar
  11    5   31 1
  12    6    7 1
  13    6   26 ar
  14    7    8 1
  15    7   32 1
  16    7   33 1
  17    8    9 1
  18    8   25 1
  19    8   10 1
  20   10   11 1
  21   10   34 1
  22   10   35 1
  23   11   12 1
  24   11   36 1
  25   11   37 1
  26   12   13 1
  27   12   14 1
  28   12   25 1
  29   14   15 1
  30   14   38 1
  31   15   24 ar
  32   15   16 ar
  33   16   21 ar
  34   16   17 ar
  35   17   18 ar
  36   17   39 1
  37   18   19 ar
  38   18   40 1
  39   19   20 ar
  40   20   21 ar
  41   20   41 1
  42   21   22 ar
  43   22   23 ar
  44   22   42 1
  45   23   24 ar
  46   23   43 1
  47   24   44 1
  48   25   45 1
  49   25   46 1
  50   26   47 1


@<TRIPOS>MOLECULE
COC1=CC(=CC(=C1C(=O)C=CC2=CC=CC=C2)O)O
  33   34    0    0    0
SMALL
USER_CHARGES
NO_NAME
@<TRIPOS>ATOM
    1 C1        4.1149    -1.5369     0.0361 C.3    1 <0>       0.0300
    2 O2        2.7569    -1.9811     0.0175 O.3    1 <0>      -0.3200
    3 C3        2.0009    -1.6068    -1.0452 C.ar   1 <0>       0.2100
    4 C4        2.5525    -0.8349    -2.0507 C.ar   1 <0>      -0.3600
    5 C5        1.7800    -0.4502    -3.1394 C.ar   1 <0>       0.1800
    6 O6        2.3289     0.3080    -4.1221 O.3    1 <0>      -0.5100
    7 C7        0.4491    -0.8375    -3.2280 C.ar   1 <0>      -0.3100
    8 C8       -0.1181    -1.6097    -2.2309 C.ar   1 <0>       0.3300
    9 O9       -1.4183    -1.9870    -2.3193 O.3    1 <0>      -0.7000
   10 C10       0.6572    -2.0074    -1.1296 C.ar   1 <0>      -0.3400
   11 C11       0.0620    -2.8290    -0.0641 C.2    1 <0>       0.4800
   12 O12      -0.3916    -2.2971     0.9337 O.2    1 <0>      -0.4800
   13 C13       0.0147    -4.2860    -0.2029 C.2    1 <0>      -0.1700
   14 C14      -0.6234    -5.0315     0.7229 C.2    1 <0>      -0.0700
   15 C15      -0.6709    -6.4957     0.5834 C.ar   1 <0>      -0.0500
   16 C16      -0.0507    -7.1187    -0.5045 C.ar   1 <0>      -0.1100
   17 C17      -0.0992    -8.4911    -0.6278 C.ar   1 <0>      -0.1200
   18 C18      -0.7598    -9.2520     0.3211 C.ar   1 <0>      -0.1200
   19 C19      -1.3760    -8.6430     1.4005 C.ar   1 <0>      -0.1200
   20 C20      -1.3314    -7.2720     1.5411 C.ar   1 <0>      -0.1100
   21 H21       4.6345    -1.9197    -0.8423 H      1 <0>       0.0500
   22 H22       4.1409    -0.4472     0.0274 H      1 <0>       0.0500
   23 H23       4.6052    -1.9048     0.9373 H      1 <0>       0.0900
   24 H24       3.5867    -0.5298    -1.9896 H      1 <0>       0.1100
   25 H25       2.7296    -0.2050    -4.8372 H      1 <0>       0.3800
   26 H26      -0.1445    -0.5346    -4.0779 H      1 <0>       0.1100
   27 H27       0.4907    -4.7638    -1.0464 H      1 <0>       0.1300
   28 H28      -1.0994    -4.5537     1.5664 H      1 <0>       0.1300
   29 H29       0.4646    -6.5263    -1.2461 H      1 <0>       0.1300
   30 H30       0.3792    -8.9737    -1.4673 H      1 <0>       0.1200
   31 H31      -0.7949   -10.3265     0.2185 H      1 <0>       0.1200
   32 H32      -1.8898    -9.2435     2.1366 H      1 <0>       0.1200
   33 H33      -1.8124    -6.7983     2.3841 H      1 <0>       0.1300
@<TRIPOS>BOND
   1    1    2 1
   2    1   21 1
   3    1   22 1
   4    1   23 1
   5    2    3 1
   6    3   10 ar
   7    3    4 ar
   8    4    5 ar
   9    4   24 1
  10    5    6 1
  11    5    7 ar
  12    6   25 1
  13    7    8 ar
  14    7   26 1
  15    8    9 1
  16    8   10 ar
  17   10   11 1
  18   11   12 2
  19   11   13 1
  20   13   14 2
  21   13   27 1
  22   14   15 1
  23   14   28 1
  24   15   20 ar
  25   15   16 ar
  26   16   17 ar
  27   16   29 1
  28   17   18 ar
  29   17   30 1
  30   18   19 ar
  31   18   31 1
  32   19   20 ar
  33   19   32 1
  34   20   33 1


@<TRIPOS>MOLECULE
C1=CC(=C(C=C1C2=C(C(=O)C3=C(O2)C=C(C=C3)O)O)O)O
30    32    1     0     0
SMALL
USER_CHARGES
@<TRIPOS>ATOM
1      O1     -0.0004   -0.0017   -0.0958 O.2      1 ZINC000000039111   -0.5100
2      C2     -0.0158    1.2176   -0.0437 C.2      1 ZINC000000039111    0.4000
3      C3     -1.2838    1.9649    0.0349 C.ar     1 ZINC000000039111   -0.3500
4      C4     -2.5131    1.3051    0.0531 C.ar     1 ZINC000000039111    0.0100
5      C5     -3.6698    2.0282    0.1269 C.ar     1 ZINC000000039111   -0.2600
6      C6     -3.6282    3.4193    0.1836 C.ar     1 ZINC000000039111    0.3200
7      O7     -4.7858    4.1248    0.2562 O.3      1 ZINC000000039111   -0.6900
8      C8     -2.4158    4.0888    0.1669 C.ar     1 ZINC000000039111   -0.2900
9      C9     -1.2323    3.3686    0.0922 C.ar     1 ZINC000000039111    0.1900
10     O10    -0.0396    3.9988    0.0750 O.3      1 ZINC000000039111   -0.2100
11     C11     1.1247    3.3315    0.0038 C.2      1 ZINC000000039111    0.1200
12     C12     2.3832    4.0994   -0.0099 C.ar     1 ZINC000000039111   -0.0200
13     C13     2.5238    5.1986   -0.8611 C.ar     1 ZINC000000039111   -0.0800
14     C14     3.7015    5.9153   -0.8724 C.ar     1 ZINC000000039111   -0.1300
15     C15     4.7491    5.5480   -0.0400 C.ar     1 ZINC000000039111    0.0900
16     O16     5.9076    6.2578   -0.0551 O.3      1 ZINC000000039111   -0.4900
17     C17     4.6158    4.4527    0.8122 C.ar     1 ZINC000000039111    0.0800
18     O18     5.6446    4.0960    1.6269 O.3      1 ZINC000000039111   -0.4900
19     C19     3.4370    3.7330    0.8329 C.ar     1 ZINC000000039111   -0.0800
20     C20     1.1856    1.9705   -0.0503 C.2      1 ZINC000000039111   -0.0500
21     O21     2.3896    1.3402   -0.1213 O.3      1 ZINC000000039111   -0.4600
22     H22    -2.5500    0.2266    0.0086 H        1 ZINC000000039111    0.1200
23     H23    -4.6218    1.5184    0.1411 H        1 ZINC000000039111    0.1100
24     H24    -2.3918    5.1677    0.2111 H        1 ZINC000000039111    0.1200
25     H25     1.7101    5.4865   -1.5103 H        1 ZINC000000039111    0.1400
26     H26     3.8091    6.7645   -1.5310 H        1 ZINC000000039111    0.1400
27     H27     5.9265    6.9932    0.5725 H        1 ZINC000000039111    0.3900
28     H28     5.6256    4.5229    2.4943 H        1 ZINC000000039111    0.3900
29     H29     3.3325    2.8843    1.4926 H        1 ZINC000000039111    0.1400
30     H30     2.3273    0.3758   -0.1555 H        1 ZINC000000039111    0.4000
@<TRIPOS>BOND
1     1     2     2
2     2     20    1
3     2     3     1
4     3     9     ar
5     3     4     ar
6     4     5     ar
7     4     22    1
8     5     6     ar
9     5     23    1
10    6     7     1
11    6     8     ar
12    8     9     ar
13    8     24    1
14    9     10    1
15    10    11    1
16    11    12    1
17    11    20    2
18    12    19    ar
19    12    13    ar
20    13    14    ar
21    13    25    1
22    14    15    ar
23    14    26    1
24    15    16    1
25    15    17    ar
26    16    27    1
27    17    18    1
28    17    19    ar
29    18    28    1
30    19    29    1
31    20    21    1
32    21    30    1
@<TRIPOS>SUBSTRUCTURE
1   ZINC000000039111 1     RESIDUE    1   A     ZIN   1


@<TRIPOS>MOLECULE
CC(=CCC(C1=CC(=O)C2=C(C=CC(=C2C1=O)O)O)O)C
37    38    1     0     0
SMALL
USER_CHARGES
@<TRIPOS>ATOM
1      C1      0.1624    1.4927    0.0023 C.3      1 ZINC000002015151   -0.1200
2      C2      0.0908   -0.0126   -0.0045 C.2      1 ZINC000002015151   -0.1200
3      C3      0.2371   -0.7797    1.2844 C.3      1 ZINC000002015151   -0.1200
4      C4     -0.0987   -0.6543   -1.1308 C.2      1 ZINC000002015151   -0.1600
5      C5     -0.1216    0.1019   -2.4341 C.3      1 ZINC000002015151   -0.1300
6      C6      0.8978   -0.5104   -3.3969 C.3      1 ZINC000002015151    0.1600
7      H7      0.6973   -1.5759   -3.5090 H        1 ZINC000002015151    0.1200
8      O8      2.2156   -0.3260   -2.8759 O.3      1 ZINC000002015151   -0.5400
9      C9      0.7894    0.1651   -4.7396 C.2      1 ZINC000002015151   -0.1500
10     C10     0.3813   -0.5372   -5.8081 C.2      1 ZINC000002015151   -0.1300
11     C11     0.2697    0.1096   -7.1305 C.2      1 ZINC000002015151    0.4200
12     O12    -0.3243   -0.4417   -8.0369 O.2      1 ZINC000002015151   -0.4100
13     C13     0.8864    1.4319   -7.3385 C.ar     1 ZINC000002015151   -0.1500
14     C14     1.0533    1.9613   -8.6172 C.ar     1 ZINC000002015151    0.1600
15     O15     0.6464    1.2602   -9.7033 O.3      1 ZINC000002015151   -0.4800
16     C16     1.6426    3.2202   -8.7733 C.ar     1 ZINC000002015151   -0.1100
17     C17     2.0556    3.9348   -7.6872 C.ar     1 ZINC000002015151   -0.1100
18     C18     1.8985    3.4237   -6.3947 C.ar     1 ZINC000002015151    0.1600
19     O19     2.3118    4.1426   -5.3229 O.3      1 ZINC000002015151   -0.4800
20     C20     1.3145    2.1706   -6.2151 C.ar     1 ZINC000002015151   -0.1500
21     C21     1.1268    1.5965   -4.8695 C.2      1 ZINC000002015151    0.4300
22     O22     1.2524    2.2927   -3.8806 O.2      1 ZINC000002015151   -0.4100
23     H23     0.2326    1.8485    1.0302 H        1 ZINC000002015151    0.0600
24     H24     1.0409    1.8171   -0.5553 H        1 ZINC000002015151    0.0700
25     H25    -0.7346    1.9012   -0.4631 H        1 ZINC000002015151    0.0600
26     H26    -0.7441   -0.9170    1.7389 H        1 ZINC000002015151    0.0700
27     H27     0.6819   -1.7535    1.0791 H        1 ZINC000002015151    0.0600
28     H28     0.8793   -0.2236    1.9673 H        1 ZINC000002015151    0.0600
29     H29    -0.2385   -1.7252   -1.1252 H        1 ZINC000002015151    0.1100
30     H30    -1.1177    0.0405   -2.8724 H        1 ZINC000002015151    0.0800
31     H31     0.1318    1.1464   -2.2527 H        1 ZINC000002015151    0.0900
32     H32     2.4627    0.6004   -2.7500 H        1 ZINC000002015151    0.3800
33     H33     0.1334   -1.5828   -5.6999 H        1 ZINC000002015151    0.1600
34     H34    -0.2677    1.4363   -9.9652 H        1 ZINC000002015151    0.4000
35     H35     1.7723    3.6304   -9.7639 H        1 ZINC000002015151    0.1500
36     H36     2.5082    4.9055   -7.8267 H        1 ZINC000002015151    0.1500
37     H37     1.6354    4.7300   -4.9588 H        1 ZINC000002015151    0.4000
@<TRIPOS>BOND
1     1     2     1
2     1     23    1
3     1     24    1
4     1     25    1
5     2     3     1
6     2     4     2
7     3     26    1
8     3     27    1
9     3     28    1
10    4     5     1
11    4     29    1
12    5     6     1
13    5     30    1
14    5     31    1
15    6     7     1
16    6     8     1
17    6     9     1
18    8     32    1
19    9     21    1
20    9     10    2
21    10    11    1
22    10    33    1
23    11    12    2
24    11    13    1
25    13    20    ar
26    13    14    ar
27    14    15    1
28    14    16    ar
29    15    34    1
30    16    17    ar
31    16    35    1
32    17    18    ar
33    17    36    1
34    18    19    1
35    18    20    ar
36    19    37    1
37    20    21    1
38    21    22    2
@<TRIPOS>SUBSTRUCTURE
1   ZINC000002015151 1     RESIDUE    1   A     ZIN   1


@<TRIPOS>MOLECULE
C1=CC(=CC=C1C2=CC(=O)C3=C(C=C(C=C3O2)O)O)O
29    31    1     0     0
SMALL
USER_CHARGES
@<TRIPOS>ATOM
1      O1      0.0021   -0.0041    0.0020 O.2      1 ZINC000003871576   -0.5000
2      C2     -0.0145    1.2162    0.0087 C.2      1 ZINC000003871576    0.4300
3      C3     -1.2333    1.9348    0.0302 C.2      1 ZINC000003871576   -0.3100
4      C4     -1.2100    3.2948    0.0375 C.2      1 ZINC000003871576    0.1900
5      C5     -2.4908    4.0260    0.0599 C.ar     1 ZINC000003871576   -0.0600
6      C6     -3.6989    3.3232    0.0792 C.ar     1 ZINC000003871576   -0.0700
7      C7     -4.8925    4.0100    0.1006 C.ar     1 ZINC000003871576   -0.1500
8      C8     -4.8970    5.3997    0.1026 C.ar     1 ZINC000003871576    0.1200
9      O9     -6.0758    6.0727    0.1233 O.3      1 ZINC000003871576   -0.5000
10     C10    -3.6982    6.1025    0.0840 C.ar     1 ZINC000003871576   -0.1500
11     C11    -2.4999    5.4237    0.0679 C.ar     1 ZINC000003871576   -0.0700
12     O12    -0.0658    3.9970    0.0254 O.3      1 ZINC000003871576   -0.2300
13     C13     1.1455    3.4014    0.0049 C.ar     1 ZINC000003871576    0.1900
14     C14     2.3074    4.1567   -0.0064 C.ar     1 ZINC000003871576   -0.2900
15     C15     3.5433    3.5285   -0.0272 C.ar     1 ZINC000003871576    0.3200
16     O16     4.6768    4.2755   -0.0382 O.3      1 ZINC000003871576   -0.6900
17     C17     3.6330    2.1411   -0.0363 C.ar     1 ZINC000003871576   -0.2900
18     C18     2.4847    1.3706   -0.0257 C.ar     1 ZINC000003871576    0.2200
19     O19     2.5700    0.0162   -0.0350 O.3      1 ZINC000003871576   -0.4900
20     C20     1.2334    1.9984    0.0010 C.ar     1 ZINC000003871576   -0.3700
21     H21    -2.1755    1.4071    0.0404 H        1 ZINC000003871576    0.1500
22     H22    -3.6963    2.2432    0.0769 H        1 ZINC000003871576    0.1400
23     H23    -5.8264    3.4677    0.1154 H        1 ZINC000003871576    0.1400
24     H24    -6.4026    6.2665    1.0126 H        1 ZINC000003871576    0.3900
25     H25    -3.7061    7.1825    0.0860 H        1 ZINC000003871576    0.1300
26     H26    -1.5687    5.9707    0.0538 H        1 ZINC000003871576    0.1400
27     H27     2.2501    5.2351    0.0005 H        1 ZINC000003871576    0.1200
28     H28     4.6018    1.6640   -0.0521 H        1 ZINC000003871576    0.1200
29     H29     2.6065   -0.3816    0.8456 H        1 ZINC000003871576    0.3800
@<TRIPOS>BOND
1     1     2     2
2     2     20    1
3     2     3     1
4     3     4     2
5     3     21    1
6     4     5     1
7     4     12    1
8     5     11    ar
9     5     6     ar
10    6     7     ar
11    6     22    1
12    7     8     ar
13    7     23    1
14    8     9     1
15    8     10    ar
16    9     24    1
17    10    11    ar
18    10    25    1
19    11    26    1
20    12    13    1
21    13    20    ar
22    13    14    ar
23    14    15    ar
24    14    27    1
25    15    16    1
26    15    17    ar
27    17    18    ar
28    17    28    1
29    18    19    1
30    18    20    ar
31    19    29    1
@<TRIPOS>SUBSTRUCTURE
1   ZINC000003871576 1     RESIDUE    1   A     ZIN   1


@<TRIPOS>MOLECULE
CCC(=O)NC1=CC(=CC=C1)OC2=NC(=NC=C2Cl)NC3=C(C=C(C=C3)N4CCN(CC4)C)OC
65    68    1     0     0
SMALL
USER_CHARGES
@<TRIPOS>ATOM
1      C1     -2.1349    0.4982    6.0345 C.3      1 ZINC000068711428   -0.1400
2      C2     -1.2767    0.6038    4.7723 C.3      1 ZINC000068711428   -0.1400
3      C3     -0.3027   -0.5453    4.7294 C.2      1 ZINC000068711428    0.5100
4      O4     -0.2956   -1.3679    5.6207 O.2      1 ZINC000068711428   -0.5200
5      N5      0.5605   -0.6590    3.7006 N.am     1 ZINC000068711428   -0.6800
6      C6      1.5234   -1.6743    3.7042 C.ar     1 ZINC000068711428    0.1600
7      C7      2.7832   -1.4397    3.1686 C.ar     1 ZINC000068711428   -0.1300
8      C8      3.7338   -2.4424    3.1717 C.ar     1 ZINC000068711428   -0.0900
9      C9      3.4343   -3.6803    3.7071 C.ar     1 ZINC000068711428   -0.1200
10     C10     2.1767   -3.9206    4.2438 C.ar     1 ZINC000068711428    0.1000
11     O11     1.8834   -5.1387    4.7700 O.3      1 ZINC000068711428   -0.2200
12     C12     2.4010   -5.4489    5.9836 C.ar     1 ZINC000068711428    0.4200
13     N13     3.2442   -4.6206    6.5874 N.ar     1 ZINC000068711428   -0.5900
14     C14     3.7524   -4.9203    7.7738 C.ar     1 ZINC000068711428    0.6000
15     N15     4.6291   -4.0335    8.3764 N.pl3    1 ZINC000068711428   -0.6200
16     C16     5.2721   -4.3862    9.5729 C.ar     1 ZINC000068711428    0.1400
17     C17     5.6310   -5.7053    9.8047 C.ar     1 ZINC000068711428   -0.0500
18     C18     6.2639   -6.0537   10.9831 C.ar     1 ZINC000068711428   -0.1700
19     C19     6.5419   -5.0838   11.9367 C.ar     1 ZINC000068711428    0.1100
20     N20     7.1828   -5.4389   13.1290 N.3      1 ZINC000068711428   -0.4800
21     C21     8.4130   -4.6574   13.3187 C.3      1 ZINC000068711428    0.0300
22     C22     9.0502   -5.0321   14.6586 C.3      1 ZINC000068711428    0.0000
23     N23     9.3555   -6.4688   14.6710 N.4      1 ZINC000068711428   -0.3900
24     H24     9.9877   -6.6847   13.9149 H        1 ZINC000068711428    0.4200
25     C25     9.9834   -6.8246   15.9505 C.3      1 ZINC000068711428   -0.0500
26     C26     8.1142   -7.2364   14.5052 C.3      1 ZINC000068711428    0.0000
27     C27     7.4692   -6.8800   13.1641 C.3      1 ZINC000068711428    0.0200
28     C28     6.1849   -3.7613   11.7079 C.ar     1 ZINC000068711428   -0.2000
29     C29     5.5552   -3.4101   10.5260 C.ar     1 ZINC000068711428    0.1300
30     O30     5.2051   -2.1157   10.2997 O.3      1 ZINC000068711428   -0.3100
31     C31     5.5175   -1.1704   11.3248 C.3      1 ZINC000068711428    0.0300
32     N32     3.4427   -6.0468    8.3982 N.ar     1 ZINC000068711428   -0.5700
33     C33     2.6076   -6.9190    7.8535 C.ar     1 ZINC000068711428    0.2300
34     C34     2.0507   -6.6411    6.6186 C.ar     1 ZINC000068711428   -0.2100
35     Cl35    0.9518   -7.7565    5.8689 Cl       1 ZINC000068711428   -0.0200
36     C36     1.2225   -2.9153    4.2481 C.ar     1 ZINC000068711428   -0.1100
37     H37    -1.4926    0.5332    6.9145 H        1 ZINC000068711428    0.0600
38     H38    -2.8394    1.3293    6.0655 H        1 ZINC000068711428    0.0700
39     H39    -2.6840   -0.4433    6.0228 H        1 ZINC000068711428    0.0600
40     H40    -1.9190    0.5687    3.8923 H        1 ZINC000068711428    0.1000
41     H41    -0.7276    1.5453    4.7840 H        1 ZINC000068711428    0.1000
42     H42     0.5143   -0.0370    2.9577 H        1 ZINC000068711428    0.4200
43     H43     3.0198   -0.4730    2.7492 H        1 ZINC000068711428    0.1300
44     H44     4.7128   -2.2582    2.7545 H        1 ZINC000068711428    0.1400
45     H45     4.1793   -4.4622    3.7077 H        1 ZINC000068711428    0.1300
46     H46     4.7986   -3.1685    7.9714 H        1 ZINC000068711428    0.4300
47     H47     5.4155   -6.4612    9.0640 H        1 ZINC000068711428    0.1500
48     H48     6.5421   -7.0817   11.1623 H        1 ZINC000068711428    0.1300
49     H49     9.1109   -4.8758   12.5104 H        1 ZINC000068711428    0.0700
50     H50     8.1727   -3.5942   13.3149 H        1 ZINC000068711428    0.1300
51     H51     9.9704   -4.4639   14.7947 H        1 ZINC000068711428    0.1400
52     H52     8.3574   -4.8009   15.4676 H        1 ZINC000068711428    0.1400
53     H53     9.3007   -6.5910   16.7676 H        1 ZINC000068711428    0.1200
54     H54    10.2100   -7.8908   15.9600 H        1 ZINC000068711428    0.1300
55     H55    10.9052   -6.2561   16.0734 H        1 ZINC000068711428    0.1200
56     H56     8.3404   -8.3024   14.5277 H        1 ZINC000068711428    0.1400
57     H57     7.4262   -6.9938   15.3151 H        1 ZINC000068711428    0.1400
58     H58     6.5404   -7.4384   13.0474 H        1 ZINC000068711428    0.1300
59     H59     8.1515   -7.1351   12.3532 H        1 ZINC000068711428    0.0700
60     H60     6.4015   -3.0069   12.4497 H        1 ZINC000068711428    0.1400
61     H61     5.1855   -0.1786   11.0179 H        1 ZINC000068711428    0.1100
62     H62     5.0105   -1.4539   12.2472 H        1 ZINC000068711428    0.0600
63     H63     6.5946   -1.1577   11.4913 H        1 ZINC000068711428    0.0600
64     H64     2.3609   -7.8348    8.3701 H        1 ZINC000068711428    0.1900
65     H65     0.2438   -3.1002    4.6655 H        1 ZINC000068711428    0.1500
@<TRIPOS>BOND
1     1     2     1
2     1     37    1
3     1     38    1
4     1     39    1
5     2     3     1
6     2     40    1
7     2     41    1
8     3     4     2
9     3     5     am
10    5     6     1
11    5     42    1
12    6     36    ar
13    6     7     ar
14    7     8     ar
15    7     43    1
16    8     9     ar
17    8     44    1
18    9     10    ar
19    9     45    1
20    10    11    1
21    10    36    ar
22    11    12    1
23    12    34    ar
24    12    13    ar
25    13    14    ar
26    14    15    1
27    14    32    ar
28    15    16    1
29    15    46    1
30    16    29    ar
31    16    17    ar
32    17    18    ar
33    17    47    1
34    18    19    ar
35    18    48    1
36    19    20    1
37    19    28    ar
38    20    27    1
39    20    21    1
40    21    22    1
41    21    49    1
42    21    50    1
43    22    23    1
44    22    51    1
45    22    52    1
46    23    24    1
47    23    25    1
48    23    26    1
49    25    53    1
50    25    54    1
51    25    55    1
52    26    27    1
53    26    56    1
54    26    57    1
55    27    58    1
56    27    59    1
57    28    29    ar
58    28    60    1
59    29    30    1
60    30    31    1
61    31    61    1
62    31    62    1
63    31    63    1
64    32    33    ar
65    33    34    ar
66    33    64    1
67    34    35    1
68    36    65    1
@<TRIPOS>SUBSTRUCTURE
1   ZINC000068711428 1     RESIDUE    1   A     ZIN   1


@<TRIPOS>MOLECULE
CC1=C2C(=NC(=N1)NC3=CN(N=C3)C4CCNCC4)N(C5=CC6=CC=CC=C6C=C5C(=O)N2C)C
64    69    1     0     0
SMALL
USER_CHARGES
@<TRIPOS>ATOM
1      C1     -0.2912    1.3039   -0.0717 C.3      1 ZINC000214463354   -0.1300
2      C2     -0.2493   -0.1985    0.0376 C.ar     1 ZINC000214463354    0.2200
3      N3     -0.4546   -0.9547   -1.0314 N.ar     1 ZINC000214463354   -0.5500
4      C4     -0.4187   -2.2758   -0.9495 C.ar     1 ZINC000214463354    0.5800
5      N5     -0.6574   -3.0298   -2.0878 N.pl3    1 ZINC000214463354   -0.6100
6      C6     -0.9336   -2.3898   -3.3111 C.2      1 ZINC000214463354    0.0500
7      C7     -1.1896   -3.0036   -4.4943 C.2      1 ZINC000214463354   -0.0100
8      N8     -1.4034   -2.0333   -5.4216 N.pl3    1 ZINC000214463354   -0.3900
9      C9     -1.7151   -2.2468   -6.8370 C.3      1 ZINC000214463354    0.1700
10     C10    -0.9768   -3.4897   -7.3422 C.3      1 ZINC000214463354   -0.1600
11     C11    -1.3685   -3.7526   -8.7978 C.3      1 ZINC000214463354    0.0000
12     N12    -2.8171   -3.9724   -8.8864 N.4      1 ZINC000214463354   -0.5100
13     H13    -3.0645   -4.1981   -9.8382 H        1 ZINC000214463354    0.4400
14     H14    -3.0778   -4.7370   -8.2818 H        1 ZINC000214463354    0.4300
15     C15    -3.5313   -2.7590   -8.4714 C.3      1 ZINC000214463354    0.0000
16     C16    -3.2227   -2.4579   -7.0032 C.3      1 ZINC000214463354   -0.1600
17     N17    -1.2736   -0.7930   -4.7838 N.2      1 ZINC000214463354   -0.2800
18     C18    -0.9991   -1.0049   -3.5221 C.2      1 ZINC000214463354    0.0600
19     N19    -0.1600   -2.8954    0.1931 N.ar     1 ZINC000214463354   -0.5600
20     C20     0.0646   -2.2010    1.3038 C.ar     1 ZINC000214463354    0.4600
21     C21     0.0105   -0.8073    1.2584 C.ar     1 ZINC000214463354   -0.0100
22     N22     0.1559   -0.0266    2.4032 N.am     1 ZINC000214463354   -0.5300
23     C23    -0.7273    1.1363    2.5209 C.3      1 ZINC000214463354    0.0600
24     C24     1.0084   -0.2264    3.3957 C.2      1 ZINC000214463354    0.5700
25     O25     0.9961    0.5781    4.3073 O.2      1 ZINC000214463354   -0.5200
26     C26     1.9679   -1.3346    3.4933 C.ar     1 ZINC000214463354   -0.1500
27     C27     1.6119   -2.6382    3.0842 C.ar     1 ZINC000214463354    0.1900
28     C28     2.4824   -3.6804    3.2352 C.ar     1 ZINC000214463354   -0.1200
29     C29     3.7650   -3.4565    3.7605 C.ar     1 ZINC000214463354   -0.0200
30     C30     4.6770   -4.5134    3.9245 C.ar     1 ZINC000214463354   -0.1100
31     C31     5.9220   -4.2606    4.4137 C.ar     1 ZINC000214463354   -0.1000
32     C32     6.3080   -2.9669    4.7607 C.ar     1 ZINC000214463354   -0.1200
33     C33     5.4490   -1.9200    4.6267 C.ar     1 ZINC000214463354   -0.0900
34     C34     4.1519   -2.1421    4.1297 C.ar     1 ZINC000214463354   -0.0700
35     C35     3.2361   -1.0892    4.0017 C.ar     1 ZINC000214463354   -0.0200
36     N36     0.3805   -2.8635    2.4803 N.pl3    1 ZINC000214463354   -0.6000
37     C37    -0.5822   -3.7891    3.0826 C.3      1 ZINC000214463354    0.1100
38     H38     0.6585    1.7193    0.2654 H        1 ZINC000214463354    0.0900
39     H39    -0.4640    1.5880   -1.1097 H        1 ZINC000214463354    0.0900
40     H40    -1.0983    1.6911    0.5502 H        1 ZINC000214463354    0.1000
41     H41    -0.6341   -3.9984   -2.0416 H        1 ZINC000214463354    0.4300
42     H42    -1.2179   -4.0692   -4.6675 H        1 ZINC000214463354    0.1700
43     H43    -1.4031   -1.3764   -7.4142 H        1 ZINC000214463354    0.1200
44     H44     0.0989   -3.3250   -7.2788 H        1 ZINC000214463354    0.1200
45     H45    -1.2506   -4.3494   -6.7306 H        1 ZINC000214463354    0.1000
46     H46    -1.0940   -2.8925   -9.4085 H        1 ZINC000214463354    0.1400
47     H47    -0.8445   -4.6368   -9.1607 H        1 ZINC000214463354    0.1400
48     H48    -3.2107   -1.9201   -9.0890 H        1 ZINC000214463354    0.1400
49     H49    -4.6039   -2.9097   -8.5933 H        1 ZINC000214463354    0.1400
50     H50    -3.5432   -3.2962   -6.3846 H        1 ZINC000214463354    0.1000
51     H51    -3.7525   -1.5557   -6.6975 H        1 ZINC000214463354    0.1200
52     H52    -0.8420   -0.2431   -2.7728 H        1 ZINC000214463354    0.2200
53     H53    -1.6493    0.9495    1.9704 H        1 ZINC000214463354    0.0800
54     H54    -0.9602    1.3109    3.5713 H        1 ZINC000214463354    0.0900
55     H55    -0.2293    2.0139    2.1085 H        1 ZINC000214463354    0.0800
56     H56     2.1832   -4.6782    2.9503 H        1 ZINC000214463354    0.1400
57     H57     4.3912   -5.5217    3.6639 H        1 ZINC000214463354    0.1300
58     H58     6.6211   -5.0747    4.5350 H        1 ZINC000214463354    0.1300
59     H59     7.3034   -2.7930    5.1418 H        1 ZINC000214463354    0.1300
60     H60     5.7618   -0.9232    4.9004 H        1 ZINC000214463354    0.1300
61     H61     3.5160   -0.0893    4.2985 H        1 ZINC000214463354    0.1400
62     H62    -1.2274   -3.2446    3.7720 H        1 ZINC000214463354    0.0500
63     H63    -1.1888   -4.2432    2.2991 H        1 ZINC000214463354    0.0700
64     H64    -0.0466   -4.5683    3.6249 H        1 ZINC000214463354    0.0800
@<TRIPOS>BOND
1     1     2     1
2     1     38    1
3     1     39    1
4     1     40    1
5     2     21    ar
6     2     3     ar
7     3     4     ar
8     4     5     1
9     4     19    ar
10    5     6     1
11    5     41    1
12    6     18    1
13    6     7     2
14    7     8     1
15    7     42    1
16    8     9     1
17    8     17    1
18    9     16    1
19    9     10    1
20    9     43    1
21    10    11    1
22    10    44    1
23    10    45    1
24    11    12    1
25    11    46    1
26    11    47    1
27    12    13    1
28    12    14    1
29    12    15    1
30    15    16    1
31    15    48    1
32    15    49    1
33    16    50    1
34    16    51    1
35    17    18    2
36    18    52    1
37    19    20    ar
38    20    36    1
39    20    21    ar
40    21    22    1
41    22    23    1
42    22    24    am
43    23    53    1
44    23    54    1
45    23    55    1
46    24    25    2
47    24    26    1
48    26    35    ar
49    26    27    ar
50    27    28    ar
51    27    36    1
52    28    29    ar
53    28    56    1
54    29    34    ar
55    29    30    ar
56    30    31    ar
57    30    57    1
58    31    32    ar
59    31    58    1
60    32    33    ar
61    32    59    1
62    33    34    ar
63    33    60    1
64    34    35    ar
65    35    61    1
66    36    37    1
67    37    62    1
68    37    63    1
69    37    64    1
@<TRIPOS>SUBSTRUCTURE
1   ZINC000214463354 1     RESIDUE    1   A     ZIN   1


@<TRIPOS>MOLECULE
COC1=C(C=C(C=C1)C2=CC(=O)C3=C(O2)C=C(C(=C3O)OC)O)OC
40    42    1     0     0
SMALL
USER_CHARGES
@<TRIPOS>ATOM
1      C1     -0.0173    1.4248    0.0099 C.3      1 ZINC000006018691    0.0200
2      O2      0.0021   -0.0041    0.0020 O.3      1 ZINC000006018691   -0.3000
3      C3      0.6256   -0.6181    1.0411 C.ar     1 ZINC000006018691    0.1100
4      C4      1.2012    0.1416    2.0496 C.ar     1 ZINC000006018691   -0.1800
5      C5      1.8348   -0.4765    3.1065 C.ar     1 ZINC000006018691   -0.0800
6      C6      1.8983   -1.8710    3.1639 C.ar     1 ZINC000006018691   -0.0500
7      C7      2.5753   -2.5343    4.2942 C.2      1 ZINC000006018691    0.1900
8      C8      3.1251   -1.7634    5.2709 C.2      1 ZINC000006018691   -0.3100
9      C9      3.7785   -2.3817    6.3628 C.2      1 ZINC000006018691    0.4300
10     O10     4.2824   -1.7210    7.2568 O.2      1 ZINC000006018691   -0.5000
11     C11     3.8265   -3.8537    6.3791 C.ar     1 ZINC000006018691   -0.3600
12     C12     4.4521   -4.5483    7.4209 C.ar     1 ZINC000006018691    0.2100
13     O13     5.0315   -3.8697    8.4451 O.3      1 ZINC000006018691   -0.4800
14     C14     4.4754   -5.9338    7.3994 C.ar     1 ZINC000006018691   -0.0900
15     O15     5.0813   -6.6193    8.4077 O.3      1 ZINC000006018691   -0.3100
16     C16     4.2704   -6.9744    9.5295 C.3      1 ZINC000006018691    0.0400
17     C17     3.8791   -6.6261    6.3473 C.ar     1 ZINC000006018691    0.3100
18     O18     3.9057   -7.9841    6.3346 O.3      1 ZINC000006018691   -0.6700
19     C19     3.2587   -5.9417    5.3140 C.ar     1 ZINC000006018691   -0.2900
20     C20     3.2265   -4.5561    5.3192 C.ar     1 ZINC000006018691    0.2000
21     O21     2.6205   -3.8756    4.3223 O.3      1 ZINC000006018691   -0.2300
22     C22     1.3183   -2.6363    2.1478 C.ar     1 ZINC000006018691   -0.1400
23     C23     0.6806   -2.0103    1.0946 C.ar     1 ZINC000006018691    0.1000
24     O24     0.1149   -2.7517    0.1047 O.3      1 ZINC000006018691   -0.3100
25     C25     0.2181   -4.1724    0.2185 C.3      1 ZINC000006018691    0.0200
26     H26     1.0053    1.8021    0.0021 H        1 ZINC000006018691    0.0600
27     H27    -0.5445    1.7859   -0.8732 H        1 ZINC000006018691    0.1000
28     H28    -0.5275    1.7763    0.9067 H        1 ZINC000006018691    0.0600
29     H29     1.1531    1.2196    2.0062 H        1 ZINC000006018691    0.1400
30     H30     2.2822    0.1172    3.8899 H        1 ZINC000006018691    0.1400
31     H31     3.0635   -0.6867    5.2130 H        1 ZINC000006018691    0.1500
32     H32     4.4363   -3.6933    9.1865 H        1 ZINC000006018691    0.3800
33     H33     3.8701   -6.0707    9.9890 H        1 ZINC000006018691    0.0300
34     H34     3.4480   -7.6080    9.1974 H        1 ZINC000006018691    0.0400
35     H35     4.8746   -7.5153   10.2578 H        1 ZINC000006018691    0.0800
36     H36     2.8001   -6.4887    4.5036 H        1 ZINC000006018691    0.1200
37     H37     1.3655   -3.7145    2.1882 H        1 ZINC000006018691    0.1500
38     H38    -0.2630   -4.4990    1.1404 H        1 ZINC000006018691    0.0600
39     H39    -0.2732   -4.6418   -0.6338 H        1 ZINC000006018691    0.1000
40     H40     1.2694   -4.4601    0.2356 H        1 ZINC000006018691    0.0600
@<TRIPOS>BOND
1     1     2     1
2     1     26    1
3     1     27    1
4     1     28    1
5     2     3     1
6     3     23    ar
7     3     4     ar
8     4     5     ar
9     4     29    1
10    5     6     ar
11    5     30    1
12    6     7     1
13    6     22    ar
14    7     21    1
15    7     8     2
16    8     9     1
17    8     31    1
18    9     10    2
19    9     11    1
20    11    20    ar
21    11    12    ar
22    12    13    1
23    12    14    ar
24    13    32    1
25    14    15    1
26    14    17    ar
27    15    16    1
28    16    33    1
29    16    34    1
30    16    35    1
31    17    18    1
32    17    19    ar
33    19    20    ar
34    19    36    1
35    20    21    1
36    22    23    ar
37    22    37    1
38    23    24    1
39    24    25    1
40    25    38    1
41    25    39    1
42    25    40    1
@<TRIPOS>SUBSTRUCTURE
1   ZINC000006018691 1     RESIDUE    1   A     ZIN   1


@<TRIPOS>MOLECULE
C1=CC(=CC=C1C=CC2=CC(=CC(=C2)O)O)O
  29   30    0    0    0
SMALL
USER_CHARGES
NO_NAME
@<TRIPOS>ATOM
    1 O1       -0.0163     1.3543     0.0095 O.3    1 <0>      -0.5000
    2 C2        0.0021    -0.0041     0.0020 C.ar   1 <0>       0.1100
    3 C3        0.0057    -0.6897    -1.2060 C.ar   1 <0>      -0.1400
    4 C4        0.0244    -2.0675    -1.2186 C.ar   1 <0>      -0.0900
    5 C5        0.0397    -2.7751    -0.0132 C.ar   1 <0>      -0.0700
    6 C6        0.0601    -4.2484    -0.0213 C.2    1 <0>      -0.0900
    7 C7        0.0748    -4.9260     1.1377 C.2    1 <0>      -0.1100
    8 C8        0.0953    -6.3997     1.1296 C.ar   1 <0>      -0.0200
    9 C9        0.1053    -7.0937    -0.0826 C.ar   1 <0>      -0.1500
   10 C10       0.1250    -8.4782    -0.0849 C.ar   1 <0>       0.1300
   11 O11       0.1348    -9.1545    -1.2637 O.3    1 <0>      -0.5000
   12 C12       0.1353    -9.1763     1.1143 C.ar   1 <0>      -0.1700
   13 C13       0.1254    -8.4915     2.3212 C.ar   1 <0>       0.1300
   14 O14       0.1360    -9.1807     3.4924 O.3    1 <0>      -0.5000
   15 C15       0.1106    -7.1069     2.3341 C.ar   1 <0>      -0.1400
   16 C16       0.0359    -2.0807     1.1999 C.ar   1 <0>      -0.0900
   17 C17       0.0230    -0.7028     1.2023 C.ar   1 <0>      -0.1400
   18 H18       0.8616     1.7596     0.0033 H      1 <0>       0.3900
   19 H19      -0.0065    -0.1421    -2.1368 H      1 <0>       0.1300
   20 H20       0.0268    -2.5998    -2.1583 H      1 <0>       0.1300
   21 H21       0.0633    -4.7832    -0.9596 H      1 <0>       0.1300
   22 H22       0.0716    -4.3911     2.0760 H      1 <0>       0.1300
   23 H23       0.0973    -6.5513    -1.0164 H      1 <0>       0.1400
   24 H24       1.0209    -9.3377    -1.6047 H      1 <0>       0.3900
   25 H25       0.1507   -10.2562     1.1084 H      1 <0>       0.1400
   26 H26       1.0223    -9.3670     3.8312 H      1 <0>       0.3900
   27 H27       0.1029    -6.5748     3.2739 H      1 <0>       0.1400
   28 H28       0.0477    -2.6231     2.1337 H      1 <0>       0.1300
   29 H29       0.0204    -0.1653     2.1391 H      1 <0>       0.1300
@<TRIPOS>BOND
   1    1    2 1
   2    1   18 1
   3    2   17 ar
   4    2    3 ar
   5    3    4 ar
   6    3   19 1
   7    4    5 ar
   8    4   20 1
   9    5    6 1
  10    5   16 ar
  11    6    7 2
  12    6   21 1
  13    7    8 1
  14    7   22 1
  15    8   15 ar
  16    8    9 ar
  17    9   10 ar
  18    9   23 1
  19   10   11 1
  20   10   12 ar
  21   11   24 1
  22   12   13 ar
  23   12   25 1
  24   13   14 1
  25   13   15 ar
  26   14   26 1
  27   15   27 1
  28   16   17 ar
  29   16   28 1
  30   17   29 1


@<TRIPOS>MOLECULE
C1=CC(=CC=C1C2=COC3=CC(=CC(=C3C2=O)O)O)O
29    31    1     0     0
SMALL
USER_CHARGES
@<TRIPOS>ATOM
1      O1      0.0021   -0.0041    0.0020 O.2      1 ZINC000018825330   -0.4900
2      C2     -0.0145    1.2150    0.0087 C.2      1 ZINC000018825330    0.4400
3      C3     -1.2756    1.9824    0.0312 C.2      1 ZINC000018825330   -0.2700
4      C4     -2.5761    1.3210   -0.2359 C.ar     1 ZINC000018825330   -0.0100
5      C5     -3.0622    0.3553    0.6439 C.ar     1 ZINC000018825330   -0.0800
6      C6     -4.2719   -0.2579    0.3927 C.ar     1 ZINC000018825330   -0.1400
7      C7     -5.0051    0.0858   -0.7347 C.ar     1 ZINC000018825330    0.1000
8      O8     -6.1967   -0.5203   -0.9794 O.3      1 ZINC000018825330   -0.5000
9      C9     -4.5240    1.0474   -1.6125 C.ar     1 ZINC000018825330   -0.1400
10     C10    -3.3175    1.6681   -1.3641 C.ar     1 ZINC000018825330   -0.1000
11     C11    -1.2104    3.3109    0.3038 C.2      1 ZINC000018825330    0.1200
12     O12    -0.0675    3.9448    0.5677 O.3      1 ZINC000018825330   -0.2200
13     C13     1.1242    3.3900    0.2752 C.ar     1 ZINC000018825330    0.1800
14     C14     2.2736    4.1675    0.2464 C.ar     1 ZINC000018825330   -0.2900
15     C15     3.4983    3.5885   -0.0451 C.ar     1 ZINC000018825330    0.3200
16     O16     4.6152    4.3595   -0.0723 O.3      1 ZINC000018825330   -0.6900
17     C17     3.5967    2.2268   -0.3096 C.ar     1 ZINC000018825330   -0.2900
18     C18     2.4638    1.4339   -0.2897 C.ar     1 ZINC000018825330    0.2200
19     O19     2.5547    0.1042   -0.5443 O.3      1 ZINC000018825330   -0.4900
20     C20     1.2225    2.0146    0.0012 C.ar     1 ZINC000018825330   -0.3700
21     H21    -2.4920    0.0872    1.5211 H        1 ZINC000018825330    0.1300
22     H22    -4.6489   -1.0065    1.0738 H        1 ZINC000018825330    0.1300
23     H23    -6.9562   -0.0667   -0.5889 H        1 ZINC000018825330    0.3900
24     H24    -5.0969    1.3130   -2.4886 H        1 ZINC000018825330    0.1300
25     H25    -2.9437    2.4163   -2.0474 H        1 ZINC000018825330    0.1300
26     H26    -2.1277    3.8811    0.3074 H        1 ZINC000018825330    0.1800
27     H27     2.2132    5.2262    0.4513 H        1 ZINC000018825330    0.1200
28     H28     4.5585    1.7882   -0.5310 H        1 ZINC000018825330    0.1200
29     H29     2.7056   -0.4375    0.2424 H        1 ZINC000018825330    0.3900
@<TRIPOS>BOND
1     1     2     2
2     2     20    1
3     2     3     1
4     3     4     1
5     3     11    2
6     4     10    ar
7     4     5     ar
8     5     6     ar
9     5     21    1
10    6     7     ar
11    6     22    1
12    7     8     1
13    7     9     ar
14    8     23    1
15    9     10    ar
16    9     24    1
17    10    25    1
18    11    12    1
19    11    26    1
20    12    13    1
21    13    20    ar
22    13    14    ar
23    14    15    ar
24    14    27    1
25    15    16    1
26    15    17    ar
27    17    18    ar
28    17    28    1
29    18    19    1
30    18    20    ar
31    19    29    1
@<TRIPOS>SUBSTRUCTURE
1   ZINC000018825330 1     RESIDUE    1   A     ZIN   1


@<TRIPOS>MOLECULE
C1CNCCN(C1)S(=O)(=O)C2=CC=CC3=C2C=CN=C3
38    40    1     0     0
SMALL
USER_CHARGES
@<TRIPOS>ATOM
1      O1      0.1425    0.0061   -0.0511 O.2      1 ZINC000000006486   -0.9400
2      S2     -0.0172    1.4168    0.0098 S.o2     1 ZINC000000006486    2.6900
3      O3      1.0775    2.3214    0.0605 O.2      1 ZINC000000006486   -0.9300
4      C4     -0.9730    1.8706   -1.3991 C.ar     1 ZINC000000006486   -0.6800
5      C5     -0.3624    2.0031   -2.6541 C.ar     1 ZINC000000006486    0.0600
6      C6      1.0142    1.7842   -2.8457 C.ar     1 ZINC000000006486   -0.2000
7      C7      1.5314    1.9328   -4.0966 C.ar     1 ZINC000000006486    0.1200
8      N8      0.7756    2.2762   -5.1307 N.ar     1 ZINC000000006486   -0.4800
9      C9     -0.5140    2.4961   -5.0265 C.ar     1 ZINC000000006486    0.1700
10     C10    -1.1467    2.3695   -3.7791 C.ar     1 ZINC000000006486   -0.1400
11     C11    -2.5224    2.5931   -3.6150 C.ar     1 ZINC000000006486   -0.0100
12     C12    -3.0822    2.4553   -2.3810 C.ar     1 ZINC000000006486   -0.1600
13     C13    -2.3123    2.0901   -1.2785 C.ar     1 ZINC000000006486    0.0200
14     N14    -0.9412    1.7253    1.3490 N.am     1 ZINC000000006486   -1.0100
15     C15    -0.9483    3.0339    1.9467 C.3      1 ZINC000000006486    0.0900
16     C16     0.0882    3.2764    3.0683 C.3      1 ZINC000000006486   -0.1700
17     C17     0.1692    2.0398    3.9943 C.3      1 ZINC000000006486   -0.0200
18     N18    -1.1508    1.4883    4.1904 N.4      1 ZINC000000006486   -0.4900
19     H19    -1.2664    1.1819    5.1448 H        1 ZINC000000006486    0.4400
20     H20    -1.8561    2.1693    3.9521 H        1 ZINC000000006486    0.4300
21     C21    -1.2082    0.3495    3.2790 C.3      1 ZINC000000006486   -0.0400
22     C22    -1.7904    0.6452    1.9560 C.3      1 ZINC000000006486    0.0900
23     H23     1.6480    1.5041   -2.0173 H        1 ZINC000000006486    0.1400
24     H24     2.5873    1.7667   -4.2508 H        1 ZINC000000006486    0.1700
25     H25    -1.0876    2.7741   -5.8983 H        1 ZINC000000006486    0.1800
26     H26    -3.1327    2.8728   -4.4610 H        1 ZINC000000006486    0.1500
27     H27    -4.1409    2.6279   -2.2557 H        1 ZINC000000006486    0.1400
28     H28    -2.7828    1.9882   -0.3118 H        1 ZINC000000006486    0.1300
29     H29    -0.7746    3.7676    1.1595 H        1 ZINC000000006486    0.1100
30     H30    -1.9416    3.2140    2.3578 H        1 ZINC000000006486    0.0900
31     H31     1.0663    3.4592    2.6231 H        1 ZINC000000006486    0.1200
32     H32    -0.2090    4.1469    3.6530 H        1 ZINC000000006486    0.1100
33     H33     0.8123    1.2872    3.5383 H        1 ZINC000000006486    0.1300
34     H34     0.5853    2.3351    4.9575 H        1 ZINC000000006486    0.1400
35     H35    -0.1957   -0.0278    3.1353 H        1 ZINC000000006486    0.1400
36     H36    -1.8010   -0.4364    3.7470 H        1 ZINC000000006486    0.1500
37     H37    -2.8176    0.9918    2.0696 H        1 ZINC000000006486    0.1100
38     H38    -1.7637   -0.2462    1.3293 H        1 ZINC000000006486    0.1500
@<TRIPOS>BOND
1     1     2     2
2     2     3     2
3     2     4     1
4     2     14    am
5     4     13    ar
6     4     5     ar
7     5     10    ar
8     5     6     ar
9     6     7     ar
10    6     23    1
11    7     8     ar
12    7     24    1
13    8     9     ar
14    9     10    ar
15    9     25    1
16    10    11    ar
17    11    12    ar
18    11    26    1
19    12    13    ar
20    12    27    1
21    13    28    1
22    14    22    1
23    14    15    1
24    15    16    1
25    15    29    1
26    15    30    1
27    16    17    1
28    16    31    1
29    16    32    1
30    17    18    1
31    17    33    1
32    17    34    1
33    18    19    1
34    18    20    1
35    18    21    1
36    21    22    1
37    21    35    1
38    21    36    1
39    22    37    1
40    22    38    1
@<TRIPOS>SUBSTRUCTURE
1   ZINC000000006486 1     RESIDUE    1   A     ZIN   1


@<TRIPOS>MOLECULE
CC(C1CCC(CC1)C(=O)NC2=CC=NC=C2)N
  40   41    0    0    0
SMALL
USER_CHARGES
NO_NAME
@<TRIPOS>ATOM
    1 C1       -0.0026     1.5247    -0.0037 C.3    1 <0>      -0.1900
    2 C2        0.0175    -0.0051    -0.0123 C.3    1 <0>       0.0300
    3 H3        0.5229    -0.3568    -0.9118 H      1 <0>       0.1400
    4 N4        0.7341    -0.4921     1.1741 N.4    1 <0>      -0.6400
    5 H5        0.2663    -0.1665     2.0067 H      1 <0>       0.4300
    6 H6        0.7473    -1.5010     1.1684 H      1 <0>       0.4300
    7 H7        1.6807    -0.1432     1.1619 H      1 <0>       0.4400
    8 C8       -1.4180    -0.5342     0.0061 C.3    1 <0>      -0.1100
    9 C9       -2.1642    -0.0271    -1.2296 C.3    1 <0>      -0.1300
   10 C10      -3.5997    -0.5561    -1.2112 C.3    1 <0>      -0.1000
   11 C11      -3.5796    -2.0860    -1.2198 C.3    1 <0>      -0.1100
   12 C12      -2.8809    -2.5722    -2.4633 C.2    1 <0>       0.5200
   13 O13      -2.4423    -1.7738    -3.2639 O.2    1 <0>      -0.5100
   14 N14      -2.7435    -3.8943    -2.6858 N.am   1 <0>      -0.6700
   15 C15      -2.1843    -4.3462    -3.8818 C.ar   1 <0>       0.1800
   16 C16      -1.1597    -3.6359    -4.5053 C.ar   1 <0>      -0.1800
   17 C17      -0.6336    -4.1162    -5.6867 C.ar   1 <0>       0.1200
   18 N18      -1.0884    -5.2317    -6.2256 N.ar   1 <0>      -0.4900
   19 C19      -2.0567    -5.9322    -5.6660 C.ar   1 <0>       0.1200
   20 C20      -2.6318    -5.5226    -4.4808 C.ar   1 <0>      -0.2000
   21 C21      -2.8333    -2.5931     0.0159 C.3    1 <0>      -0.1100
   22 C22      -1.3978    -2.0640    -0.0025 C.3    1 <0>      -0.1400
   23 H23       1.0201     1.9016    -0.0168 H      1 <0>       0.0800
   24 H24      -0.5343     1.8860    -0.8840 H      1 <0>       0.1100
   25 H25      -0.5080     1.8764     0.8957 H      1 <0>       0.0800
   26 H26      -1.9233    -0.1825     0.9055 H      1 <0>       0.1000
   27 H27      -2.1786     1.0628    -1.2235 H      1 <0>       0.0800
   28 H28      -1.6589    -0.3787    -2.1290 H      1 <0>       0.1000
   29 H29      -4.1051    -0.2044    -0.3117 H      1 <0>       0.0800
   30 H30      -4.1314    -0.1948    -2.0915 H      1 <0>       0.0800
   31 H31      -4.6023    -2.4629    -1.2067 H      1 <0>       0.1100
   32 H32      -3.0334    -4.5318    -2.0146 H      1 <0>       0.4100
   33 H33      -0.7832    -2.7221    -4.0698 H      1 <0>       0.1400
   34 H34       0.1602    -3.5722    -6.1769 H      1 <0>       0.1600
   35 H35      -2.4002    -6.8400    -6.1395 H      1 <0>       0.1600
   36 H36      -3.4239    -6.1006    -4.0281 H      1 <0>       0.1400
   37 H37      -3.3387    -2.2414     0.9153 H      1 <0>       0.0900
   38 H38      -2.8190    -3.6830     0.0098 H      1 <0>       0.0800
   39 H39      -0.8925    -2.4157    -0.9020 H      1 <0>       0.0800
   40 H40      -0.8662    -2.4253     0.8778 H      1 <0>       0.0600
@<TRIPOS>BOND
   1    1    2 1
   2    1   23 1
   3    1   24 1
   4    1   25 1
   5    2    3 1
   6    2    4 1
   7    2    8 1
   8    4    5 1
   9    4    6 1
  10    4    7 1
  11    8   22 1
  12    8    9 1
  13    8   26 1
  14    9   10 1
  15    9   27 1
  16    9   28 1
  17   10   11 1
  18   10   29 1
  19   10   30 1
  20   11   12 1
  21   11   21 1
  22   11   31 1
  23   12   13 2
  24   12   14 am
  25   14   15 1
  26   14   32 1
  27   15   20 ar
  28   15   16 ar
  29   16   17 ar
  30   16   33 1
  31   17   18 ar
  32   17   34 1
  33   18   19 ar
  34   19   20 ar
  35   19   35 1
  36   20   36 1
  37   21   22 1
  38   21   37 1
  39   21   38 1
  40   22   39 1
  41   22   40 1


@<TRIPOS>MOLECULE
CC1=C4C(C=NC=C4)=C(C)C3=C1N(CCCN)C2=CC=C(OC)C=C23
49    52    1     0     0
SMALL
USER_CHARGES
@<TRIPOS>ATOM
1      C1     -0.2487    1.2560    0.6318 C.3      1 ZINC000001720645    0.0300
2      O2     -0.1789   -0.1626    0.4745 O.3      1 ZINC000001720645   -0.3100
3      C3     -1.3590   -0.8334    0.3922 C.ar     1 ZINC000001720645    0.1100
4      C4     -1.3627   -2.2087    0.2450 C.ar     1 ZINC000001720645   -0.1000
5      C5     -2.5737   -2.8913    0.1616 C.ar     1 ZINC000001720645   -0.0500
6      C6     -3.7839   -2.1876    0.2266 C.ar     1 ZINC000001720645    0.1100
7      C7     -3.7625   -0.8044    0.3747 C.ar     1 ZINC000001720645   -0.1000
8      C8     -2.5598   -0.1365    0.4619 C.ar     1 ZINC000001720645   -0.1700
9      N9     -4.8280   -3.0948    0.1205 N.pl3    1 ZINC000001720645   -0.5200
10     C10    -6.2496   -2.7417    0.1460 C.3      1 ZINC000001720645    0.1200
11     C11    -6.7334   -2.4704   -1.2799 C.3      1 ZINC000001720645   -0.1800
12     C12    -8.2180   -2.1016   -1.2532 C.3      1 ZINC000001720645   -0.0100
13     N13    -8.6825   -1.8411   -2.6223 N.4      1 ZINC000001720645   -0.6400
14     H14    -8.5515   -2.6682   -3.1850 H        1 ZINC000001720645    0.4400
15     H15    -9.6616   -1.5979   -2.6047 H        1 ZINC000001720645    0.4400
16     H16    -8.1535   -1.0781   -3.0175 H        1 ZINC000001720645    0.4400
17     C17    -4.3347   -4.3818   -0.0129 C.ar     1 ZINC000001720645    0.1900
18     C18    -2.9231   -4.3178    0.0061 C.ar     1 ZINC000001720645   -0.1000
19     C19    -2.1604   -5.4650   -0.1101 C.ar     1 ZINC000001720645    0.0200
20     C20    -0.6559   -5.3815   -0.0877 C.3      1 ZINC000001720645   -0.1300
21     C21    -2.7956   -6.7048   -0.2481 C.ar     1 ZINC000001720645   -0.1400
22     C22    -2.0671   -7.9009   -0.3693 C.ar     1 ZINC000001720645    0.1700
23     N23    -2.7003   -9.0429   -0.4965 N.ar     1 ZINC000001720645   -0.4900
24     C24    -4.0241   -9.1322   -0.5175 C.ar     1 ZINC000001720645    0.0900
25     C25    -4.8209   -8.0350   -0.4075 C.ar     1 ZINC000001720645   -0.1800
26     C26    -4.2160   -6.7698   -0.2674 C.ar     1 ZINC000001720645    0.0200
27     C27    -4.9722   -5.6001   -0.1488 C.ar     1 ZINC000001720645   -0.1400
28     C28    -6.4775   -5.6677   -0.1686 C.3      1 ZINC000001720645   -0.1100
29     H29     0.7600    1.6659    0.6840 H        1 ZINC000001720645    0.1100
30     H30    -0.7738    1.6905   -0.2188 H        1 ZINC000001720645    0.0600
31     H31    -0.7854    1.4938    1.5503 H        1 ZINC000001720645    0.0600
32     H32    -0.4301   -2.7510    0.1946 H        1 ZINC000001720645    0.1400
33     H33    -4.6900   -0.2534    0.4258 H        1 ZINC000001720645    0.1200
34     H34    -2.5503    0.9373    0.5768 H        1 ZINC000001720645    0.1400
35     H35    -6.8211   -3.5659    0.5729 H        1 ZINC000001720645    0.1100
36     H36    -6.3911   -1.8481    0.7540 H        1 ZINC000001720645    0.1000
37     H37    -6.1619   -1.6462   -1.7068 H        1 ZINC000001720645    0.1000
38     H38    -6.5918   -3.3639   -1.8878 H        1 ZINC000001720645    0.1000
39     H39    -8.7895   -2.9258   -0.8263 H        1 ZINC000001720645    0.1400
40     H40    -8.3596   -1.2080   -0.6453 H        1 ZINC000001720645    0.1400
41     H41    -0.3023   -5.4709    0.9395 H        1 ZINC000001720645    0.0900
42     H42    -0.2382   -6.1902   -0.6874 H        1 ZINC000001720645    0.0800
43     H43    -0.3391   -4.4231   -0.4990 H        1 ZINC000001720645    0.0800
44     H44    -0.9873   -7.8797   -0.3580 H        1 ZINC000001720645    0.1700
45     H45    -4.4824  -10.1042   -0.6254 H        1 ZINC000001720645    0.1600
46     H46    -5.8964   -8.1316   -0.4275 H        1 ZINC000001720645    0.1400
47     H47    -6.8539   -5.6867    0.8542 H        1 ZINC000001720645    0.0700
48     H48    -6.8737   -4.7935   -0.6853 H        1 ZINC000001720645    0.0600
49     H49    -6.7938   -6.5717   -0.6890 H        1 ZINC000001720645    0.0800
@<TRIPOS>BOND
1     1     2     1
2     1     29    1
3     1     30    1
4     1     31    1
5     2     3     1
6     3     8     ar
7     3     4     ar
8     4     5     ar
9     4     32    1
10    5     18    1
11    5     6     ar
12    6     7     ar
13    6     9     1
14    7     8     ar
15    7     33    1
16    8     34    1
17    9     10    1
18    9     17    1
19    10    11    1
20    10    35    1
21    10    36    1
22    11    12    1
23    11    37    1
24    11    38    1
25    12    13    1
26    12    39    1
27    12    40    1
28    13    14    1
29    13    15    1
30    13    16    1
31    17    27    ar
32    17    18    ar
33    18    19    ar
34    19    20    1
35    19    21    ar
36    20    41    1
37    20    42    1
38    20    43    1
39    21    26    ar
40    21    22    ar
41    22    23    ar
42    22    44    1
43    23    24    ar
44    24    25    ar
45    24    45    1
46    25    26    ar
47    25    46    1
48    26    27    ar
49    27    28    1
50    28    47    1
51    28    48    1
52    28    49    1
@<TRIPOS>SUBSTRUCTURE
1   ZINC000001720645 1     RESIDUE    1   A     ZIN   1


@<TRIPOS>MOLECULE
CC1=CC(=NN1)NC2=CC(=NC(=N2)C=CC3=CC=CC=C3)N4CCN(CC4)C
53    56    1     0     0
SMALL
USER_CHARGES
@<TRIPOS>ATOM
1      C1      0.1880   -8.2350   -1.0316 C.3      1 ZINC000034885047   -0.1000
2      C2      0.1566   -6.7607   -0.7206 C.2      1 ZINC000034885047    0.0900
3      C3      0.1195   -5.7567   -1.6259 C.2      1 ZINC000034885047   -0.2700
4      C4      0.0995   -4.5420   -0.9214 C.2      1 ZINC000034885047    0.3100
5      N5      0.0596   -3.2622   -1.4891 N.pl3    1 ZINC000034885047   -0.6100
6      C6      0.1466   -3.1108   -2.8653 C.ar     1 ZINC000034885047    0.4600
7      C7      0.2272   -1.8408   -3.4314 C.ar     1 ZINC000034885047   -0.3000
8      C8      0.3130   -1.7354   -4.8179 C.ar     1 ZINC000034885047    0.3900
9      N9      0.3954   -0.4911   -5.4236 N.3      1 ZINC000034885047   -0.4800
10     C10    -0.7384    0.3596   -5.0358 C.3      1 ZINC000034885047    0.0600
11     C11    -0.5691    1.7467   -5.6600 C.3      1 ZINC000034885047    0.0500
12     N12    -0.4876    1.6167   -7.1215 N.3      1 ZINC000034885047   -0.5500
13     C13    -0.4003    2.9352   -7.7633 C.3      1 ZINC000034885047    0.0200
14     C14     0.6463    0.7660   -7.5093 C.3      1 ZINC000034885047    0.0500
15     C15     0.4769   -0.6211   -6.8851 C.3      1 ZINC000034885047    0.0700
16     N16     0.3153   -2.8433   -5.5528 N.ar     1 ZINC000034885047   -0.5700
17     C17     0.2371   -4.0397   -4.9796 C.ar     1 ZINC000034885047    0.4100
18     C18     0.2430   -5.2437   -5.8274 C.2      1 ZINC000034885047   -0.1100
19     C19     0.0538   -6.4541   -5.2763 C.2      1 ZINC000034885047   -0.0500
20     C20    -0.0510   -7.6467   -6.1356 C.ar     1 ZINC000034885047   -0.0700
21     C21     0.0517   -7.5231   -7.5239 C.ar     1 ZINC000034885047   -0.1000
22     C22    -0.0469   -8.6437   -8.3216 C.ar     1 ZINC000034885047   -0.1200
23     C23    -0.2475   -9.8882   -7.7507 C.ar     1 ZINC000034885047   -0.1100
24     C24    -0.3502  -10.0184   -6.3768 C.ar     1 ZINC000034885047   -0.1200
25     C25    -0.2478   -8.9075   -5.5659 C.ar     1 ZINC000034885047   -0.1000
26     N26     0.1596   -4.1767   -3.6605 N.ar     1 ZINC000034885047   -0.5700
27     N27     0.1240   -4.8158    0.3618 N.2      1 ZINC000034885047   -0.3300
28     N28     0.1548   -6.2082    0.5108 N.pl3    1 ZINC000034885047   -0.4700
29     H29    -0.8318   -8.6142   -1.0970 H        1 ZINC000034885047    0.0800
30     H30     0.6969   -8.3951   -1.9821 H        1 ZINC000034885047    0.0900
31     H31     0.7215   -8.7619   -0.2405 H        1 ZINC000034885047    0.0700
32     H32     0.1077   -5.8691   -2.6999 H        1 ZINC000034885047    0.1800
33     H33    -0.0288   -2.4817   -0.9200 H        1 ZINC000034885047    0.4300
34     H34     0.2228   -0.9578   -2.8096 H        1 ZINC000034885047    0.1500
35     H35    -1.6668   -0.0880   -5.3906 H        1 ZINC000034885047    0.0600
36     H36    -0.7700    0.4508   -3.9501 H        1 ZINC000034885047    0.0900
37     H37    -1.4236    2.3704   -5.3975 H        1 ZINC000034885047    0.0900
38     H38     0.3455    2.2054   -5.2842 H        1 ZINC000034885047    0.0500
39     H39     0.4903    3.4537   -7.4084 H        1 ZINC000034885047    0.0300
40     H40    -0.3411    2.8098   -8.8445 H        1 ZINC000034885047    0.0700
41     H41    -1.2853    3.5203   -7.5133 H        1 ZINC000034885047    0.0700
42     H42     0.6778    0.6748   -8.5951 H        1 ZINC000034885047    0.0900
43     H43     1.5747    1.2136   -7.1545 H        1 ZINC000034885047    0.0400
44     H44     1.3314   -1.2448   -7.1477 H        1 ZINC000034885047    0.0900
45     H45    -0.4377   -1.0798   -7.2609 H        1 ZINC000034885047    0.0600
46     H46     0.3994   -5.1537   -6.8922 H        1 ZINC000034885047    0.1400
47     H47    -0.0215   -6.5532   -4.2035 H        1 ZINC000034885047    0.1400
48     H48     0.2076   -6.5523   -7.9709 H        1 ZINC000034885047    0.1300
49     H49     0.0323   -8.5498   -9.3946 H        1 ZINC000034885047    0.1300
50     H50    -0.3247  -10.7622   -8.3805 H        1 ZINC000034885047    0.1200
51     H51    -0.5071  -10.9928   -5.9383 H        1 ZINC000034885047    0.1300
52     H52    -0.3282   -9.0105   -4.4939 H        1 ZINC000034885047    0.1300
53     H53     0.1768   -6.6909    1.3519 H        1 ZINC000034885047    0.4400
@<TRIPOS>BOND
1     1     2     1
2     1     29    1
3     1     30    1
4     1     31    1
5     2     28    1
6     2     3     2
7     3     4     1
8     3     32    1
9     4     5     1
10    4     27    2
11    5     6     1
12    5     33    1
13    6     26    ar
14    6     7     ar
15    7     8     ar
16    7     34    1
17    8     9     1
18    8     16    ar
19    9     15    1
20    9     10    1
21    10    11    1
22    10    35    1
23    10    36    1
24    11    12    1
25    11    37    1
26    11    38    1
27    12    13    1
28    12    14    1
29    13    39    1
30    13    40    1
31    13    41    1
32    14    15    1
33    14    42    1
34    14    43    1
35    15    44    1
36    15    45    1
37    16    17    ar
38    17    18    1
39    17    26    ar
40    18    19    2
41    18    46    1
42    19    20    1
43    19    47    1
44    20    25    ar
45    20    21    ar
46    21    22    ar
47    21    48    1
48    22    23    ar
49    22    49    1
50    23    24    ar
51    23    50    1
52    24    25    ar
53    24    51    1
54    25    52    1
55    27    28    1
56    28    53    1
@<TRIPOS>SUBSTRUCTURE
1   ZINC000034885047 1     RESIDUE    1   A     ZIN   1


@<TRIPOS>MOLECULE
O=C1C2=C(N=C(NC3=CC=CC=C3)N2)N(C)C(N1C)=O
33    35    1     0     0
SMALL
USER_CHARGES
@<TRIPOS>ATOM
1      C1     -0.0447    1.4048    0.7800 C.3      1 ZINC000020113328    0.0700
2      N2     -0.0177   -0.0452    0.5730 N.am     1 ZINC000020113328   -0.5100
3      C3     -1.1987   -0.7279    0.3872 C.2      1 ZINC000020113328    0.2700
4      C4     -1.1628   -2.1015    0.1914 C.2      1 ZINC000020113328   -0.0700
5      N5     -2.4442   -2.5258    0.0360 N.2      1 ZINC000020113328   -0.4400
6      C6     -3.2479   -1.4965    0.1257 C.2      1 ZINC000020113328    0.4900
7      N7     -4.6277   -1.5461    0.0176 N.pl3    1 ZINC000020113328   -0.6400
8      C8     -5.2762   -2.7795   -0.0911 C.ar     1 ZINC000020113328    0.1700
9      C9     -4.7236   -3.9107    0.4959 C.ar     1 ZINC000020113328   -0.1300
10     C10    -5.3672   -5.1277    0.3870 C.ar     1 ZINC000020113328   -0.0900
11     C11    -6.5606   -5.2210   -0.3055 C.ar     1 ZINC000020113328   -0.1400
12     C12    -7.1136   -4.0968   -0.8910 C.ar     1 ZINC000020113328   -0.1000
13     C13    -6.4779   -2.8757   -0.7815 C.ar     1 ZINC000020113328   -0.1500
14     N14    -2.5115   -0.3636    0.3435 N.pl3    1 ZINC000020113328   -0.5700
15     C15     0.1385   -2.7690    0.1909 C.2      1 ZINC000020113328    0.5900
16     O16     0.2206   -3.9722    0.0227 O.2      1 ZINC000020113328   -0.4800
17     N17     1.2470   -2.0214    0.3807 N.am     1 ZINC000020113328   -0.5500
18     C18     2.5621   -2.6670    0.3840 C.3      1 ZINC000020113328    0.0800
19     C19     1.1607   -0.6928    0.5611 C.2      1 ZINC000020113328    0.7100
20     O20     2.1827   -0.0554    0.7288 O.2      1 ZINC000020113328   -0.5300
21     H21     0.9737    1.7732    0.9034 H        1 ZINC000020113328    0.1100
22     H22    -0.5032    1.8866   -0.0835 H        1 ZINC000020113328    0.0800
23     H23    -0.6247    1.6334    1.6741 H        1 ZINC000020113328    0.0800
24     H24    -5.1440   -0.7250    0.0174 H        1 ZINC000020113328    0.4200
25     H25    -3.7914   -3.8387    1.0365 H        1 ZINC000020113328    0.1400
26     H26    -4.9379   -6.0077    0.8428 H        1 ZINC000020113328    0.1300
27     H27    -7.0618   -6.1740   -0.3895 H        1 ZINC000020113328    0.1200
28     H28    -8.0457   -4.1731   -1.4311 H        1 ZINC000020113328    0.1300
29     H29    -6.9104   -1.9981   -1.2387 H        1 ZINC000020113328    0.1200
30     H30    -2.8604    0.5354    0.4482 H        1 ZINC000020113328    0.4300
31     H31     2.4415   -3.7378    0.2200 H        1 ZINC000020113328    0.1100
32     H32     3.1762   -2.2446   -0.4113 H        1 ZINC000020113328    0.0800
33     H33     3.0470   -2.4990    1.3456 H        1 ZINC000020113328    0.0800
@<TRIPOS>BOND
1     1     2     1
2     1     21    1
3     1     22    1
4     1     23    1
5     2     19    am
6     2     3     1
7     3     14    1
8     3     4     2
9     4     5     1
10    4     15    1
11    5     6     2
12    6     7     1
13    6     14    1
14    7     8     1
15    7     24    1
16    8     13    ar
17    8     9     ar
18    9     10    ar
19    9     25    1
20    10    11    ar
21    10    26    1
22    11    12    ar
23    11    27    1
24    12    13    ar
25    12    28    1
26    13    29    1
27    14    30    1
28    15    16    2
29    15    17    am
30    17    18    1
31    17    19    am
32    18    31    1
33    18    32    1
34    18    33    1
35    19    20    2
@<TRIPOS>SUBSTRUCTURE
1   ZINC000020113328 1     RESIDUE    1   A     ZIN   1


@<TRIPOS>MOLECULE
O=C(N(C)C(N1C)=O)C2=C1N=C(N2C)NC3=CC=CC=C3
36    38    1     0     0
SMALL
USER_CHARGES
@<TRIPOS>ATOM
1      C1     -0.4898    1.4309   -0.0167 C.3      1 ZINC000000195139    0.0700
2      N2     -0.3205   -0.0243   -0.0161 N.pl3    1 ZINC000000195139   -0.4400
3      C3     -0.1024   -0.8161   -1.0995 C.2      1 ZINC000000195139    0.5400
4      N4     -0.0025   -0.3752   -2.4004 N.pl3    1 ZINC000000195139   -0.6400
5      C5      0.1114   -1.2980   -3.4445 C.ar     1 ZINC000000195139    0.1600
6      C6     -0.4673   -2.5554   -3.3284 C.ar     1 ZINC000000195139   -0.1200
7      C7     -0.3529   -3.4646   -4.3616 C.ar     1 ZINC000000195139   -0.0900
8      C8      0.3373   -3.1246   -5.5106 C.ar     1 ZINC000000195139   -0.1400
9      C9      0.9150   -1.8738   -5.6293 C.ar     1 ZINC000000195139   -0.1000
10     C10     0.7987   -0.9575   -4.6026 C.ar     1 ZINC000000195139   -0.1500
11     N11    -0.0011   -2.0710   -0.7109 N.2      1 ZINC000000195139   -0.5200
12     C12    -0.1453   -2.1509    0.6127 C.2      1 ZINC000000195139    0.3500
13     C13    -0.3458   -0.8606    1.0915 C.2      1 ZINC000000195139   -0.1700
14     C14    -0.5280   -0.6610    2.4716 C.2      1 ZINC000000195139    0.6000
15     O15    -0.7056    0.4608    2.9134 O.2      1 ZINC000000195139   -0.5200
16     N16    -0.5045   -1.7245    3.3013 N.am     1 ZINC000000195139   -0.5500
17     C17    -0.6943   -1.5217    4.7397 C.3      1 ZINC000000195139    0.0800
18     C18    -0.3100   -2.9676    2.8281 C.2      1 ZINC000000195139    0.7100
19     O19    -0.2949   -3.9025    3.6055 O.2      1 ZINC000000195139   -0.5300
20     N20    -0.1273   -3.2025    1.5150 N.am     1 ZINC000000195139   -0.5100
21     C21     0.0811   -4.5721    1.0386 C.3      1 ZINC000000195139    0.0900
22     H22     0.4829    1.9099    0.0954 H        1 ZINC000000195139    0.0800
23     H23    -0.9424    1.7436   -0.9577 H        1 ZINC000000195139    0.0900
24     H24    -1.1357    1.7219    0.8116 H        1 ZINC000000195139    0.1100
25     H25    -0.0112    0.5756   -2.5923 H        1 ZINC000000195139    0.4200
26     H26    -1.0059   -2.8218   -2.4309 H        1 ZINC000000195139    0.1400
27     H27    -0.8026   -4.4424   -4.2719 H        1 ZINC000000195139    0.1300
28     H28     0.4256   -3.8376   -6.3170 H        1 ZINC000000195139    0.1200
29     H29     1.4536   -1.6115   -6.5279 H        1 ZINC000000195139    0.1300
30     H30     1.2500    0.0192   -4.6959 H        1 ZINC000000195139    0.1300
31     H31    -1.7558   -1.5857    4.9787 H        1 ZINC000000195139    0.0800
32     H32    -0.1510   -2.2901    5.2898 H        1 ZINC000000195139    0.1000
33     H33    -0.3171   -0.5384    5.0208 H        1 ZINC000000195139    0.0900
34     H34     0.0562   -5.2588    1.8847 H        1 ZINC000000195139    0.1000
35     H35    -0.7073   -4.8354    0.3335 H        1 ZINC000000195139    0.0800
36     H36     1.0496   -4.6410    0.5431 H        1 ZINC000000195139    0.0800
@<TRIPOS>BOND
1     1     2     1
2     1     22    1
3     1     23    1
4     1     24    1
5     2     13    1
6     2     3     1
7     3     4     1
8     3     11    2
9     4     5     1
10    4     25    1
11    5     10    ar
12    5     6     ar
13    6     7     ar
14    6     26    1
15    7     8     ar
16    7     27    1
17    8     9     ar
18    8     28    1
19    9     10    ar
20    9     29    1
21    10    30    1
22    11    12    1
23    12    20    1
24    12    13    2
25    13    14    1
26    14    15    2
27    14    16    am
28    16    17    1
29    16    18    am
30    17    31    1
31    17    32    1
32    17    33    1
33    18    19    2
34    18    20    am
35    20    21    1
36    21    34    1
37    21    35    1
38    21    36    1
@<TRIPOS>SUBSTRUCTURE
1   ZINC000000195139 1     RESIDUE    1   A     ZIN   1


@<TRIPOS>MOLECULE
CC(C)OC1=C(C=CC(=C1)OC)C2=NC(C(N2C(=O)N3CCNC(=O)C3)C4=CC=C(C=C4)Cl)C5=CC=C(C=C5)Cl
70    74    1     0     0
SMALL
USER_CHARGES
@<TRIPOS>ATOM
1      C1      0.3151    0.9360    0.8078 C.3      1 ZINC000015965747    0.0300
2      O2      1.5717    0.8120    0.1388 O.3      1 ZINC000015965747   -0.3100
3      C3      1.6240   -0.0324   -0.9231 C.ar     1 ZINC000015965747    0.1900
4      C4      0.4830   -0.7234   -1.3154 C.ar     1 ZINC000015965747   -0.2600
5      C5      0.5281   -1.5816   -2.3915 C.ar     1 ZINC000015965747    0.0100
6      C6      1.7225   -1.7594   -3.0924 C.ar     1 ZINC000015965747   -0.1300
7      C7      1.7744   -2.6784   -4.2470 C.2      1 ZINC000015965747    0.4500
8      N8      1.5003   -3.9385   -4.1561 N.2      1 ZINC000015965747   -0.5100
9      C9      1.6402   -4.5838   -5.4684 C.3      1 ZINC000015965747    0.1000
10     H10     0.6882   -5.0067   -5.7890 H        1 ZINC000015965747    0.1200
11     C11     2.7013   -5.6529   -5.4201 C.ar     1 ZINC000015965747   -0.0800
12     C12     3.8524   -5.4510   -4.6817 C.ar     1 ZINC000015965747   -0.0800
13     C13     4.8259   -6.4311   -4.6370 C.ar     1 ZINC000015965747   -0.1100
14     C14     4.6482   -7.6144   -5.3315 C.ar     1 ZINC000015965747   -0.0300
15     Cl15    5.8703   -8.8461   -5.2755 Cl       1 ZINC000015965747   -0.0700
16     C16     3.4960   -7.8158   -6.0704 C.ar     1 ZINC000015965747   -0.1100
17     C17     2.5206   -6.8373   -6.1097 C.ar     1 ZINC000015965747   -0.0900
18     C18     2.0661   -3.4390   -6.4085 C.3      1 ZINC000015965747    0.1300
19     H19     3.0475   -3.6395   -6.8383 H        1 ZINC000015965747    0.1200
20     C20     1.0429   -3.2362   -7.4962 C.ar     1 ZINC000015965747   -0.1100
21     C21    -0.1102   -2.5198   -7.2353 C.ar     1 ZINC000015965747   -0.0900
22     C22    -1.0490   -2.3335   -8.2325 C.ar     1 ZINC000015965747   -0.1000
23     C23    -0.8344   -2.8642   -9.4920 C.ar     1 ZINC000015965747   -0.0300
24     Cl24   -2.0127   -2.6301  -10.7452 Cl       1 ZINC000015965747   -0.0600
25     C25     0.3199   -3.5810   -9.7526 C.ar     1 ZINC000015965747   -0.1000
26     C26     1.2605   -3.7619   -8.7562 C.ar     1 ZINC000015965747   -0.0900
27     N27     2.1135   -2.2677   -5.5175 N.am     1 ZINC000015965747   -0.5800
28     C28     2.4406   -1.0117   -5.8806 C.2      1 ZINC000015965747    0.7400
29     O29     2.5316   -0.1397   -5.0386 O.2      1 ZINC000015965747   -0.5300
30     N30     2.6669   -0.7225   -7.1774 N.am     1 ZINC000015965747   -0.6200
31     C31     2.9170    0.6590   -7.6220 C.3      1 ZINC000015965747    0.1100
32     C32     4.3158    0.7163   -8.2389 C.3      1 ZINC000015965747    0.0900
33     N33     4.5187   -0.3912   -9.1627 N.am     1 ZINC000015965747   -0.7200
34     C34     3.8265   -1.5312   -9.1419 C.2      1 ZINC000015965747    0.5100
35     O35     4.1408   -2.4130   -9.9129 O.2      1 ZINC000015965747   -0.5400
36     C36     2.6801   -1.7743   -8.2049 C.3      1 ZINC000015965747    0.0400
37     C37     2.8720   -1.0619   -2.6964 C.ar     1 ZINC000015965747    0.2500
38     O38     4.0368   -1.2293   -3.3726 O.3      1 ZINC000015965747   -0.2900
39     C39     5.1465   -0.4282   -2.9617 C.3      1 ZINC000015965747    0.0800
40     C40     6.4507   -1.1136   -3.3740 C.3      1 ZINC000015965747   -0.1500
41     C41     5.0589    0.9455   -3.6297 C.3      1 ZINC000015965747   -0.1700
42     C42     2.8141   -0.1982   -1.6163 C.ar     1 ZINC000015965747   -0.2600
43     H43    -0.4354    1.3006    0.1065 H        1 ZINC000015965747    0.0600
44     H44     0.0106   -0.0374    1.1923 H        1 ZINC000015965747    0.0600
45     H45     0.4117    1.6394    1.6348 H        1 ZINC000015965747    0.1000
46     H46    -0.4416   -0.5869   -0.7742 H        1 ZINC000015965747    0.1300
47     H47    -0.3600   -2.1172   -2.6929 H        1 ZINC000015965747    0.1300
48     H48     3.9912   -4.5271   -4.1399 H        1 ZINC000015965747    0.1300
49     H49     5.7253   -6.2731   -4.0604 H        1 ZINC000015965747    0.1300
50     H50     3.3568   -8.7392   -6.6130 H        1 ZINC000015965747    0.1400
51     H51     1.6210   -6.9946   -6.6861 H        1 ZINC000015965747    0.1400
52     H52    -0.2778   -2.1060   -6.2519 H        1 ZINC000015965747    0.1300
53     H53    -1.9500   -1.7742   -8.0284 H        1 ZINC000015965747    0.1400
54     H54     0.4878   -3.9958  -10.7356 H        1 ZINC000015965747    0.1400
55     H55     2.1618   -4.3211   -8.9595 H        1 ZINC000015965747    0.1400
56     H56     2.1746    0.9458   -8.3668 H        1 ZINC000015965747    0.0800
57     H57     2.8633    1.3354   -6.7689 H        1 ZINC000015965747    0.1200
58     H58     4.4328    1.6576   -8.7760 H        1 ZINC000015965747    0.0900
59     H59     5.0606    0.6623   -7.4449 H        1 ZINC000015965747    0.0700
60     H60     5.2053   -0.2928   -9.8409 H        1 ZINC000015965747    0.4000
61     H61     2.7956   -2.7497   -7.7323 H        1 ZINC000015965747    0.1600
62     H62     1.7424   -1.7442   -8.7598 H        1 ZINC000015965747    0.1100
63     H63     5.1261   -0.3075   -1.8786 H        1 ZINC000015965747    0.0700
64     H64     6.4711   -1.2343   -4.4571 H        1 ZINC000015965747    0.0600
65     H65     7.2972   -0.5026   -3.0605 H        1 ZINC000015965747    0.0800
66     H66     6.5131   -2.0923   -2.8981 H        1 ZINC000015965747    0.0600
67     H67     5.9053    1.5565   -3.3162 H        1 ZINC000015965747    0.0600
68     H68     5.0792    0.8247   -4.7128 H        1 ZINC000015965747    0.0600
69     H69     4.1297    1.4337   -3.3359 H        1 ZINC000015965747    0.0700
70     H70     3.6977    0.3412   -1.3085 H        1 ZINC000015965747    0.1400
@<TRIPOS>BOND
1     1     2     1
2     1     43    1
3     1     44    1
4     1     45    1
5     2     3     1
6     3     42    ar
7     3     4     ar
8     4     5     ar
9     4     46    1
10    5     6     ar
11    5     47    1
12    6     7     1
13    6     37    ar
14    7     27    1
15    7     8     2
16    8     9     1
17    9     10    1
18    9     11    1
19    9     18    1
20    11    17    ar
21    11    12    ar
22    12    13    ar
23    12    48    1
24    13    14    ar
25    13    49    1
26    14    15    1
27    14    16    ar
28    16    17    ar
29    16    50    1
30    17    51    1
31    18    19    1
32    18    20    1
33    18    27    1
34    20    26    ar
35    20    21    ar
36    21    22    ar
37    21    52    1
38    22    23    ar
39    22    53    1
40    23    24    1
41    23    25    ar
42    25    26    ar
43    25    54    1
44    26    55    1
45    27    28    am
46    28    29    2
47    28    30    am
48    30    36    1
49    30    31    1
50    31    32    1
51    31    56    1
52    31    57    1
53    32    33    1
54    32    58    1
55    32    59    1
56    33    34    am
57    33    60    1
58    34    35    2
59    34    36    1
60    36    61    1
61    36    62    1
62    37    38    1
63    37    42    ar
64    38    39    1
65    39    40    1
66    39    41    1
67    39    63    1
68    40    64    1
69    40    65    1
70    40    66    1
71    41    67    1
72    41    68    1
73    41    69    1
74    42    70    1
@<TRIPOS>SUBSTRUCTURE
1   ZINC000015965747 1     RESIDUE    1   A     ZIN   1


@<TRIPOS>MOLECULE
CCN(CCCOC1=CC2=C(C=C1)C(=NC=N2)NC3=NNC(=C3)CC(=O)NC4=CC(=CC=C4)F)CCO
68    71    1     0     0
SMALL
USER_CHARGES
@<TRIPOS>ATOM
1      C1      1.1245   -2.3271    0.2032 C.3      1 ZINC000016697102   -0.1900
2      C2      0.5055   -1.8481   -1.1114 C.3      1 ZINC000016697102   -0.0200
3      N3      0.4974   -0.3794   -1.1424 N.4      1 ZINC000016697102   -0.3800
4      H4      0.0340   -0.0282   -0.3177 H        1 ZINC000016697102    0.4300
5      C5     -0.2182    0.0812   -2.3398 C.3      1 ZINC000016697102   -0.0100
6      C6     -1.6889   -0.3298   -2.2446 C.3      1 ZINC000016697102    0.0500
7      O7     -2.3044    0.3528   -1.1505 O.3      1 ZINC000016697102   -0.5800
8      C8      1.8794    0.1173   -1.1765 C.3      1 ZINC000016697102   -0.0100
9      C9      1.8760    1.6431   -1.0632 C.3      1 ZINC000016697102   -0.1500
10     C10     3.3162    2.1508   -0.9699 C.3      1 ZINC000016697102    0.0600
11     O11     3.3130    3.5759   -0.8641 O.3      1 ZINC000016697102   -0.3100
12     C12     4.5207    4.1900   -0.7718 C.ar     1 ZINC000016697102    0.1700
13     C13     5.6886    3.4232   -0.7896 C.ar     1 ZINC000016697102   -0.2100
14     C14     6.9130    4.0136   -0.6986 C.ar     1 ZINC000016697102   -0.0200
15     C15     7.0056    5.4056   -0.5862 C.ar     1 ZINC000016697102   -0.2200
16     C16     5.8269    6.1922   -0.5678 C.ar     1 ZINC000016697102    0.2300
17     C17     4.5807    5.5637   -0.6674 C.ar     1 ZINC000016697102   -0.1500
18     N18     5.9425    7.5250   -0.4596 N.ar     1 ZINC000016697102   -0.5500
19     C19     7.1258    8.0850   -0.3730 C.ar     1 ZINC000016697102    0.3600
20     N20     8.2529    7.3917   -0.3860 N.ar     1 ZINC000016697102   -0.5800
21     C21     8.2523    6.0688   -0.4892 C.ar     1 ZINC000016697102    0.4900
22     N22     9.4349    5.3589   -0.5011 N.pl3    1 ZINC000016697102   -0.6000
23     C23    10.6580    6.0341   -0.4035 C.2      1 ZINC000016697102    0.3000
24     N24    11.8474    5.4794   -0.4088 N.2      1 ZINC000016697102   -0.3100
25     N25    12.8038    6.4960   -0.2921 N.pl3    1 ZINC000016697102   -0.4600
26     C26    12.1530    7.6760   -0.2167 C.2      1 ZINC000016697102    0.1100
27     C27    12.7916    9.0345   -0.0825 C.3      1 ZINC000016697102   -0.0800
28     C28    12.9410    9.6563   -1.4471 C.2      1 ZINC000016697102    0.5100
29     O29    12.5659    9.0555   -2.4317 O.2      1 ZINC000016697102   -0.5000
30     N30    13.4914   10.8800   -1.5735 N.am     1 ZINC000016697102   -0.6700
31     C31    13.5315   11.5032   -2.8255 C.ar     1 ZINC000016697102    0.1700
32     C32    14.6110   12.3066   -3.1684 C.ar     1 ZINC000016697102   -0.1500
33     C33    14.6489   12.9212   -4.4050 C.ar     1 ZINC000016697102   -0.0700
34     C34    13.6132   12.7382   -5.3020 C.ar     1 ZINC000016697102   -0.1700
35     C35    12.5341   11.9380   -4.9638 C.ar     1 ZINC000016697102    0.1200
36     F36    11.5233   11.7609   -5.8425 F        1 ZINC000016697102   -0.1400
37     C37    12.4945   11.3150   -3.7296 C.ar     1 ZINC000016697102   -0.1600
38     C38    10.8264    7.4235   -0.2890 C.2      1 ZINC000016697102   -0.2400
39     H39     2.1740   -2.0346    0.2384 H        1 ZINC000016697102    0.0800
40     H40     0.5932   -1.8753    1.0409 H        1 ZINC000016697102    0.0800
41     H41     1.0475   -3.4125    0.2669 H        1 ZINC000016697102    0.1100
42     H42     1.0926   -2.2259   -1.9484 H        1 ZINC000016697102    0.1300
43     H43    -0.5167   -2.2187   -1.1879 H        1 ZINC000016697102    0.1300
44     H44    -0.1481    1.1667   -2.4099 H        1 ZINC000016697102    0.1400
45     H45     0.2285   -0.3698   -3.2259 H        1 ZINC000016697102    0.1400
46     H46    -2.2002   -0.0670   -3.1707 H        1 ZINC000016697102    0.1000
47     H47    -1.7559   -1.4060   -2.0854 H        1 ZINC000016697102    0.0700
48     H48    -3.2400    0.1399   -1.0302 H        1 ZINC000016697102    0.4100
49     H49     2.4389   -0.3077   -0.3431 H        1 ZINC000016697102    0.1400
50     H50     2.3479   -0.1762   -2.1159 H        1 ZINC000016697102    0.1300
51     H51     1.3959    2.0716   -1.9429 H        1 ZINC000016697102    0.1000
52     H52     1.3275    1.9398   -0.1692 H        1 ZINC000016697102    0.1000
53     H53     3.7963    1.7222   -0.0901 H        1 ZINC000016697102    0.0800
54     H54     3.8647    1.8541   -1.8639 H        1 ZINC000016697102    0.0800
55     H55     5.6199    2.3488   -0.8762 H        1 ZINC000016697102    0.1400
56     H56     7.8085    3.4100   -0.7127 H        1 ZINC000016697102    0.1300
57     H57     3.6731    6.1490   -0.6548 H        1 ZINC000016697102    0.1500
58     H58     7.1826    9.1601   -0.2874 H        1 ZINC000016697102    0.2000
59     H59     9.4194    4.3920   -0.5771 H        1 ZINC000016697102    0.4300
60     H60    13.7658    6.3734   -0.2691 H        1 ZINC000016697102    0.4400
61     H61    12.1633    9.6714    0.5401 H        1 ZINC000016697102    0.1300
62     H62    13.7736    8.9304    0.3788 H        1 ZINC000016697102    0.1100
63     H63    13.8599   11.3286   -0.7964 H        1 ZINC000016697102    0.4200
64     H64    15.4206   12.4511   -2.4684 H        1 ZINC000016697102    0.1300
65     H65    15.4887   13.5459   -4.6712 H        1 ZINC000016697102    0.1400
66     H66    13.6452   13.2202   -6.2679 H        1 ZINC000016697102    0.1400
67     H67    11.6534   10.6911   -3.4655 H        1 ZINC000016697102    0.1500
68     H68    10.0364    8.1593   -0.2570 H        1 ZINC000016697102    0.1900
@<TRIPOS>BOND
1     1     2     1
2     1     39    1
3     1     40    1
4     1     41    1
5     2     3     1
6     2     42    1
7     2     43    1
8     3     4     1
9     3     5     1
10    3     8     1
11    5     6     1
12    5     44    1
13    5     45    1
14    6     7     1
15    6     46    1
16    6     47    1
17    7     48    1
18    8     9     1
19    8     49    1
20    8     50    1
21    9     10    1
22    9     51    1
23    9     52    1
24    10    11    1
25    10    53    1
26    10    54    1
27    11    12    1
28    12    17    ar
29    12    13    ar
30    13    14    ar
31    13    55    1
32    14    15    ar
33    14    56    1
34    15    21    ar
35    15    16    ar
36    16    17    ar
37    16    18    ar
38    17    57    1
39    18    19    ar
40    19    20    ar
41    19    58    1
42    20    21    ar
43    21    22    1
44    22    23    1
45    22    59    1
46    23    38    1
47    23    24    2
48    24    25    1
49    25    26    1
50    25    60    1
51    26    27    1
52    26    38    2
53    27    28    1
54    27    61    1
55    27    62    1
56    28    29    2
57    28    30    am
58    30    31    1
59    30    63    1
60    31    37    ar
61    31    32    ar
62    32    33    ar
63    32    64    1
64    33    34    ar
65    33    65    1
66    34    35    ar
67    34    66    1
68    35    36    1
69    35    37    ar
70    37    67    1
71    38    68    1
@<TRIPOS>SUBSTRUCTURE
1   ZINC000016697102 1     RESIDUE    1   A     ZIN   1


@<TRIPOS>MOLECULE
CC1=C2C=CN=CC2=C(C3=C1N(C4=C3C=C(C=C4)OC)CCCN)C
49    52    1     0     0
SMALL
USER_CHARGES
@<TRIPOS>ATOM
1      C1     -0.2487    1.2560    0.6318 C.3      1 ZINC000001720645    0.0300
2      O2     -0.1789   -0.1626    0.4745 O.3      1 ZINC000001720645   -0.3100
3      C3     -1.3590   -0.8334    0.3922 C.ar     1 ZINC000001720645    0.1100
4      C4     -1.3627   -2.2087    0.2450 C.ar     1 ZINC000001720645   -0.1000
5      C5     -2.5737   -2.8913    0.1616 C.ar     1 ZINC000001720645   -0.0500
6      C6     -3.7839   -2.1876    0.2266 C.ar     1 ZINC000001720645    0.1100
7      C7     -3.7625   -0.8044    0.3747 C.ar     1 ZINC000001720645   -0.1000
8      C8     -2.5598   -0.1365    0.4619 C.ar     1 ZINC000001720645   -0.1700
9      N9     -4.8280   -3.0948    0.1205 N.pl3    1 ZINC000001720645   -0.5200
10     C10    -6.2496   -2.7417    0.1460 C.3      1 ZINC000001720645    0.1200
11     C11    -6.7334   -2.4704   -1.2799 C.3      1 ZINC000001720645   -0.1800
12     C12    -8.2180   -2.1016   -1.2532 C.3      1 ZINC000001720645   -0.0100
13     N13    -8.6825   -1.8411   -2.6223 N.4      1 ZINC000001720645   -0.6400
14     H14    -8.5515   -2.6682   -3.1850 H        1 ZINC000001720645    0.4400
15     H15    -9.6616   -1.5979   -2.6047 H        1 ZINC000001720645    0.4400
16     H16    -8.1535   -1.0781   -3.0175 H        1 ZINC000001720645    0.4400
17     C17    -4.3347   -4.3818   -0.0129 C.ar     1 ZINC000001720645    0.1900
18     C18    -2.9231   -4.3178    0.0061 C.ar     1 ZINC000001720645   -0.1000
19     C19    -2.1604   -5.4650   -0.1101 C.ar     1 ZINC000001720645    0.0200
20     C20    -0.6559   -5.3815   -0.0877 C.3      1 ZINC000001720645   -0.1300
21     C21    -2.7956   -6.7048   -0.2481 C.ar     1 ZINC000001720645   -0.1400
22     C22    -2.0671   -7.9009   -0.3693 C.ar     1 ZINC000001720645    0.1700
23     N23    -2.7003   -9.0429   -0.4965 N.ar     1 ZINC000001720645   -0.4900
24     C24    -4.0241   -9.1322   -0.5175 C.ar     1 ZINC000001720645    0.0900
25     C25    -4.8209   -8.0350   -0.4075 C.ar     1 ZINC000001720645   -0.1800
26     C26    -4.2160   -6.7698   -0.2674 C.ar     1 ZINC000001720645    0.0200
27     C27    -4.9722   -5.6001   -0.1488 C.ar     1 ZINC000001720645   -0.1400
28     C28    -6.4775   -5.6677   -0.1686 C.3      1 ZINC000001720645   -0.1100
29     H29     0.7600    1.6659    0.6840 H        1 ZINC000001720645    0.1100
30     H30    -0.7738    1.6905   -0.2188 H        1 ZINC000001720645    0.0600
31     H31    -0.7854    1.4938    1.5503 H        1 ZINC000001720645    0.0600
32     H32    -0.4301   -2.7510    0.1946 H        1 ZINC000001720645    0.1400
33     H33    -4.6900   -0.2534    0.4258 H        1 ZINC000001720645    0.1200
34     H34    -2.5503    0.9373    0.5768 H        1 ZINC000001720645    0.1400
35     H35    -6.8211   -3.5659    0.5729 H        1 ZINC000001720645    0.1100
36     H36    -6.3911   -1.8481    0.7540 H        1 ZINC000001720645    0.1000
37     H37    -6.1619   -1.6462   -1.7068 H        1 ZINC000001720645    0.1000
38     H38    -6.5918   -3.3639   -1.8878 H        1 ZINC000001720645    0.1000
39     H39    -8.7895   -2.9258   -0.8263 H        1 ZINC000001720645    0.1400
40     H40    -8.3596   -1.2080   -0.6453 H        1 ZINC000001720645    0.1400
41     H41    -0.3023   -5.4709    0.9395 H        1 ZINC000001720645    0.0900
42     H42    -0.2382   -6.1902   -0.6874 H        1 ZINC000001720645    0.0800
43     H43    -0.3391   -4.4231   -0.4990 H        1 ZINC000001720645    0.0800
44     H44    -0.9873   -7.8797   -0.3580 H        1 ZINC000001720645    0.1700
45     H45    -4.4824  -10.1042   -0.6254 H        1 ZINC000001720645    0.1600
46     H46    -5.8964   -8.1316   -0.4275 H        1 ZINC000001720645    0.1400
47     H47    -6.8539   -5.6867    0.8542 H        1 ZINC000001720645    0.0700
48     H48    -6.8737   -4.7935   -0.6853 H        1 ZINC000001720645    0.0600
49     H49    -6.7938   -6.5717   -0.6890 H        1 ZINC000001720645    0.0800
@<TRIPOS>BOND
1     1     2     1
2     1     29    1
3     1     30    1
4     1     31    1
5     2     3     1
6     3     8     ar
7     3     4     ar
8     4     5     ar
9     4     32    1
10    5     18    1
11    5     6     ar
12    6     7     ar
13    6     9     1
14    7     8     ar
15    7     33    1
16    8     34    1
17    9     10    1
18    9     17    1
19    10    11    1
20    10    35    1
21    10    36    1
22    11    12    1
23    11    37    1
24    11    38    1
25    12    13    1
26    12    39    1
27    12    40    1
28    13    14    1
29    13    15    1
30    13    16    1
31    17    27    ar
32    17    18    ar
33    18    19    ar
34    19    20    1
35    19    21    ar
36    20    41    1
37    20    42    1
38    20    43    1
39    21    26    ar
40    21    22    ar
41    22    23    ar
42    22    44    1
43    23    24    ar
44    24    25    ar
45    24    45    1
46    25    26    ar
47    25    46    1
48    26    27    ar
49    27    28    1
50    28    47    1
51    28    48    1
52    28    49    1
@<TRIPOS>SUBSTRUCTURE
1   ZINC000001720645 1     RESIDUE    1   A     ZIN   1


@<TRIPOS>MOLECULE
C1=CC=C2C(=C1)C(=C(C(=O)O2)CC3=C(C4=CC=CC=C4OC3=O)O)O
35    38    1     0     0
SMALL
USER_CHARGES
@<TRIPOS>ATOM
1      O1      0.0021   -0.0041    0.0020 O.2      1 ZINC000003869855   -0.4900
2      C2     -0.0145    1.2145    0.0087 C.2      1 ZINC000003869855    0.4900
3      O3     -1.1964    1.8509    0.0290 O.3      1 ZINC000003869855   -0.3100
4      C4     -1.2758    3.1991    0.0372 C.ar     1 ZINC000003869855    0.1500
5      C5     -2.5090    3.8368    0.0587 C.ar     1 ZINC000003869855   -0.1600
6      C6     -2.5719    5.2147    0.0673 C.ar     1 ZINC000003869855   -0.1000
7      C7     -1.4123    5.9753    0.0547 C.ar     1 ZINC000003869855   -0.1800
8      C8     -0.1787    5.3624    0.0334 C.ar     1 ZINC000003869855   -0.0500
9      C9     -0.1010    3.9685    0.0245 C.ar     1 ZINC000003869855   -0.1500
10     C10     1.1993    3.2807    0.0023 C.2      1 ZINC000003869855    0.3100
11     O11     2.3570    3.9799   -0.0104 O.3      1 ZINC000003869855   -0.6400
12     C12     1.2025    1.9131    0.0009 C.2      1 ZINC000003869855   -0.4400
13     C13     2.5073    1.1595   -0.0215 C.3      1 ZINC000003869855    0.1100
14     C14     2.9037    0.7996    1.3872 C.2      1 ZINC000003869855   -0.4400
15     C15     2.5858   -0.4289    1.8974 C.2      1 ZINC000003869855    0.3100
16     O16     1.9148   -1.3389    1.1552 O.3      1 ZINC000003869855   -0.6400
17     C17     2.9961   -0.7309    3.2776 C.ar     1 ZINC000003869855   -0.1500
18     C18     2.7050   -1.9651    3.8616 C.ar     1 ZINC000003869855   -0.0500
19     C19     3.1036   -2.2166    5.1560 C.ar     1 ZINC000003869855   -0.1800
20     C20     3.7901   -1.2512    5.8771 C.ar     1 ZINC000003869855   -0.1000
21     C21     4.0836   -0.0276    5.3121 C.ar     1 ZINC000003869855   -0.1600
22     C22     3.6914    0.2461    4.0085 C.ar     1 ZINC000003869855    0.1500
23     O23     3.9709    1.4387    3.4396 O.3      1 ZINC000003869855   -0.3100
24     C24     3.6057    1.7212    2.1789 C.2      1 ZINC000003869855    0.4900
25     O25     3.8827    2.8125    1.7125 O.2      1 ZINC000003869855   -0.4900
26     H26    -3.4184    3.2543    0.0683 H        1 ZINC000003869855    0.1200
27     H27    -3.5335    5.7061    0.0837 H        1 ZINC000003869855    0.1200
28     H28    -1.4767    7.0534    0.0613 H        1 ZINC000003869855    0.1100
29     H29     0.7230    5.9568    0.0240 H        1 ZINC000003869855    0.1300
30     H30     2.3913    0.2494   -0.6101 H        1 ZINC000003869855    0.0400
31     H31     3.2805    1.7848   -0.4680 H        1 ZINC000003869855    0.0400
32     H32     2.1702   -2.7182    3.3019 H        1 ZINC000003869855    0.1300
33     H33     2.8801   -3.1700    5.6116 H        1 ZINC000003869855    0.1100
34     H34     4.0977   -1.4594    6.8913 H        1 ZINC000003869855    0.1200
35     H35     4.6181    0.7171    5.8831 H        1 ZINC000003869855    0.1200
@<TRIPOS>BOND
1     1     2     2
2     2     12    1
3     2     3     1
4     3     4     1
5     4     9     ar
6     4     5     ar
7     5     6     ar
8     5     26    1
9     6     7     ar
10    6     27    1
11    7     8     ar
12    7     28    1
13    8     9     ar
14    8     29    1
15    9     10    1
16    10    11    1
17    10    12    2
18    12    13    1
19    13    14    1
20    13    30    1
21    13    31    1
22    14    24    1
23    14    15    2
24    15    16    1
25    15    17    1
26    17    22    ar
27    17    18    ar
28    18    19    ar
29    18    32    1
30    19    20    ar
31    19    33    1
32    20    21    ar
33    20    34    1
34    21    22    ar
35    21    35    1
36    22    23    1
37    23    24    1
38    24    25    2
@<TRIPOS>SUBSTRUCTURE
1   ZINC000003869855 1     RESIDUE    1   A     ZIN   1


@<TRIPOS>MOLECULE
COC1=CC=C(C(C2=C(OC(C=C3C4=CC=CC=C4)=O)C3=C(OC)C=C2OC)CC(N5CCCC5)=O)C=C1
69    73    1     0     0
SMALL
USER_CHARGES
@<TRIPOS>ATOM
1      C1     -0.9253   -4.9762   -0.4702 C.3      1 ZINC000013661447    0.0300
2      O2     -1.0833   -5.1716    0.9366 O.3      1 ZINC000013661447   -0.3200
3      C3     -0.1977   -4.5392    1.7506 C.ar     1 ZINC000013661447    0.1300
4      C4      0.7992   -3.7422    1.2069 C.ar     1 ZINC000013661447   -0.2100
5      C5      1.6979   -3.1000    2.0365 C.ar     1 ZINC000013661447   -0.0700
6      C6      1.6047   -3.2514    3.4077 C.ar     1 ZINC000013661447   -0.1200
7      C7      2.5867   -2.5500    4.3104 C.3      1 ZINC000013661447    0.0300
8      H8      2.7703   -1.5433    3.9350 H        1 ZINC000013661447    0.1000
9      C9      2.0110   -2.4696    5.7256 C.3      1 ZINC000013661447   -0.1400
10     C10     3.0783   -1.9908    6.6757 C.2      1 ZINC000013661447    0.5300
11     O11     4.1900   -1.7387    6.2616 O.2      1 ZINC000013661447   -0.5300
12     N12     2.7975   -1.8426    7.9855 N.am     1 ZINC000013661447   -0.6200
13     C13     1.4999   -2.1171    8.6200 C.3      1 ZINC000013661447    0.1000
14     C14     1.6429   -1.7812   10.1194 C.3      1 ZINC000013661447   -0.1300
15     C15     2.8448   -0.8004   10.1427 C.3      1 ZINC000013661447   -0.1300
16     C16     3.7423   -1.3847    9.0204 C.3      1 ZINC000013661447    0.1100
17     C17     3.8820   -3.3198    4.3380 C.ar     1 ZINC000013661447   -0.1400
18     C18     5.0612   -2.7049    3.9471 C.ar     1 ZINC000013661447    0.2700
19     O19     5.0418   -1.4096    3.5413 O.3      1 ZINC000013661447   -0.2900
20     C20     6.2898   -0.8331    3.1511 C.3      1 ZINC000013661447    0.0300
21     C21     6.2644   -3.4027    3.9674 C.ar     1 ZINC000013661447   -0.3200
22     C22     6.2955   -4.7214    4.3787 C.ar     1 ZINC000013661447    0.2300
23     O23     7.4689   -5.4032    4.3988 O.3      1 ZINC000013661447   -0.2900
24     C24     8.6378   -4.6954    3.9808 C.3      1 ZINC000013661447    0.0200
25     C25     5.1063   -5.3507    4.7757 C.ar     1 ZINC000013661447   -0.2200
26     C26     3.8936   -4.6403    4.7597 C.ar     1 ZINC000013661447    0.2200
27     O27     2.7502   -5.2492    5.1422 O.3      1 ZINC000013661447   -0.2600
28     C28     2.7284   -6.5299    5.5442 C.2      1 ZINC000013661447    0.5100
29     O29     1.6675   -7.0281    5.8779 O.2      1 ZINC000013661447   -0.4600
30     C30     3.8937   -7.3112    5.5903 C.2      1 ZINC000013661447   -0.2700
31     C31     5.1038   -6.7524    5.2189 C.2      1 ZINC000013661447    0.1000
32     C32     6.3533   -7.5443    5.2544 C.ar     1 ZINC000013661447   -0.0600
33     C33     7.3751   -7.2018    6.1411 C.ar     1 ZINC000013661447   -0.0600
34     C34     8.5374   -7.9444    6.1695 C.ar     1 ZINC000013661447   -0.1200
35     C35     8.6914   -9.0265    5.3210 C.ar     1 ZINC000013661447   -0.1100
36     C36     7.6824   -9.3710    4.4393 C.ar     1 ZINC000013661447   -0.1200
37     C37     6.5126   -8.6403    4.4053 C.ar     1 ZINC000013661447   -0.0900
38     C38     0.6118   -4.0447    3.9521 C.ar     1 ZINC000013661447   -0.0600
39     C39    -0.2926   -4.6848    3.1270 C.ar     1 ZINC000013661447   -0.1500
40     H40     0.0590   -5.3293   -0.7777 H        1 ZINC000013661447    0.0500
41     H41    -1.6946   -5.5349   -1.0032 H        1 ZINC000013661447    0.1000
42     H42    -1.0198   -3.9155   -0.7025 H        1 ZINC000013661447    0.0600
43     H43     0.8729   -3.6243    0.1359 H        1 ZINC000013661447    0.1300
44     H44     2.4742   -2.4795    1.6137 H        1 ZINC000013661447    0.1200
45     H45     1.1738   -1.7717    5.7381 H        1 ZINC000013661447    0.1000
46     H46     1.6660   -3.4564    6.0342 H        1 ZINC000013661447    0.1100
47     H47     0.7283   -1.4910    8.1718 H        1 ZINC000013661447    0.0700
48     H48     1.2431   -3.1694    8.4986 H        1 ZINC000013661447    0.0700
49     H49     0.7416   -1.2957   10.4935 H        1 ZINC000013661447    0.0800
50     H50     1.8664   -2.6788   10.6960 H        1 ZINC000013661447    0.0800
51     H51     2.5259    0.2142    9.9040 H        1 ZINC000013661447    0.0800
52     H52     3.3558   -0.8314   11.1051 H        1 ZINC000013661447    0.0800
53     H53     4.3302   -2.2199    9.4011 H        1 ZINC000013661447    0.0700
54     H54     4.3965   -0.6119    8.6168 H        1 ZINC000013661447    0.0800
55     H55     6.1333    0.2027    2.8500 H        1 ZINC000013661447    0.1000
56     H56     6.9838   -0.8665    3.9909 H        1 ZINC000013661447    0.0600
57     H57     6.7043   -1.3959    2.3147 H        1 ZINC000013661447    0.0600
58     H58     7.1765   -2.9125    3.6604 H        1 ZINC000013661447    0.1400
59     H59     9.5038   -5.3542    4.0449 H        1 ZINC000013661447    0.1000
60     H60     8.5111   -4.3608    2.9512 H        1 ZINC000013661447    0.0600
61     H61     8.7900   -3.8313    4.6276 H        1 ZINC000013661447    0.0600
62     H62     3.8469   -8.3392    5.9179 H        1 ZINC000013661447    0.1600
63     H63     7.2563   -6.3570    6.8033 H        1 ZINC000013661447    0.1200
64     H64     9.3289   -7.6804    6.8552 H        1 ZINC000013661447    0.1200
65     H65     9.6034   -9.6044    5.3469 H        1 ZINC000013661447    0.1200
66     H66     7.8090  -10.2163    3.7791 H        1 ZINC000013661447    0.1300
67     H67     5.7256   -8.9105    3.7169 H        1 ZINC000013661447    0.1200
68     H68     0.5408   -4.1611    5.0235 H        1 ZINC000013661447    0.1300
69     H69    -1.0680   -5.3044    3.5527 H        1 ZINC000013661447    0.1300
@<TRIPOS>BOND
1     1     2     1
2     1     40    1
3     1     41    1
4     1     42    1
5     2     3     1
6     3     39    ar
7     3     4     ar
8     4     5     ar
9     4     43    1
10    5     6     ar
11    5     44    1
12    6     7     1
13    6     38    ar
14    7     8     1
15    7     9     1
16    7     17    1
17    9     10    1
18    9     45    1
19    9     46    1
20    10    11    2
21    10    12    am
22    12    16    1
23    12    13    1
24    13    14    1
25    13    47    1
26    13    48    1
27    14    15    1
28    14    49    1
29    14    50    1
30    15    16    1
31    15    51    1
32    15    52    1
33    16    53    1
34    16    54    1
35    17    26    ar
36    17    18    ar
37    18    19    1
38    18    21    ar
39    19    20    1
40    20    55    1
41    20    56    1
42    20    57    1
43    21    22    ar
44    21    58    1
45    22    23    1
46    22    25    ar
47    23    24    1
48    24    59    1
49    24    60    1
50    24    61    1
51    25    31    1
52    25    26    ar
53    26    27    1
54    27    28    1
55    28    29    2
56    28    30    1
57    30    31    2
58    30    62    1
59    31    32    1
60    32    37    ar
61    32    33    ar
62    33    34    ar
63    33    63    1
64    34    35    ar
65    34    64    1
66    35    36    ar
67    35    65    1
68    36    37    ar
69    36    66    1
70    37    67    1
71    38    39    ar
72    38    68    1
73    39    69    1
@<TRIPOS>SUBSTRUCTURE
1   ZINC000013661447 1     RESIDUE    1   A     ZIN   1


@<TRIPOS>MOLECULE
CC1=C(C(=CC=C1)Cl)NC(=O)C2=CN=C(S2)NC3=CC(=NC(=N3)C)N4CCN(CC4)CCO
  59   62    0    0    0
SMALL
NO_CHARGES
@<TRIPOS>ATOM
   1 C1             2.5054     0.5664    -0.2808 C.3     
   2 C2             1.7487    -0.7349    -0.2098 C.ar    
   3 N3             1.2888    -1.2688    -1.3226 N.ar    
   4 C4             0.6153    -2.4175    -1.3024 C.ar    
   5 N5             0.1346    -2.9732    -2.4809 N.pl3   
   6 C6             0.2552    -2.2814    -3.6698 C.2     
   7 N7             0.8858    -1.1509    -3.8099 N.2     
   8 C8             0.9095    -0.6217    -5.0065 C.2     
   9 C9             0.2507    -1.3562    -5.9532 C.2     
  10 C10            0.1126    -1.0133    -7.3680 C.2     
  11 O11            0.6113     0.0110    -7.7977 O.2     
  12 N12           -0.5667    -1.8311    -8.1964 N.am    
  13 C13           -0.6009    -1.5647    -9.5694 C.ar    
  14 C14           -0.2615    -2.5569   -10.4792 C.ar    
  15 C15            0.1445    -3.9229    -9.9890 C.3     
  16 C16           -0.2967    -2.2909   -11.8345 C.ar    
  17 C17           -0.6689    -1.0382   -12.2856 C.ar    
  18 C18           -1.0074    -0.0468   -11.3826 C.ar    
  19 C19           -0.9804    -0.3077   -10.0259 C.ar    
  20 Cl20          -1.4058     0.9367    -8.8928 Cl      
  21 S21           -0.3962    -2.7930    -5.1649 S.3     
  22 C22            0.4006    -3.0528    -0.0839 C.ar    
  23 C23            0.9031    -2.4553     1.0687 C.ar    
  24 N24            0.7158    -3.0487     2.3074 N.pl3   
  25 C25            1.0496    -2.3305     3.5468 C.3     
  26 C26           -0.1583    -2.3953     4.4874 C.3     
  27 N27           -0.5579    -3.7970     4.6703 N.3     
  28 C28           -1.6013    -3.9173     5.6973 C.3     
  29 C29           -1.8138    -5.3937     6.0379 C.3     
  30 O30           -0.6289    -5.9192     6.6394 O.3     
  31 C31           -0.9957    -4.3960     3.4024 C.3     
  32 C32            0.1722    -4.4109     2.4175 C.3     
  33 N33            1.5708    -1.3082     0.9632 N.ar    
  34 H34            3.5673     0.3622    -0.4178 H       
  35 H35            2.1373     1.1553    -1.1210 H       
  36 H36            2.3589     1.1230     0.6449 H       
  37 H37           -0.2858    -3.8473    -2.4689 H       
  38 H38            1.4053     0.3122    -5.2267 H       
  39 H39           -1.0319    -2.6043    -7.8406 H       
  40 H40           -0.7387    -4.5562    -9.9053 H       
  41 H41            0.8457    -4.3685   -10.6946 H       
  42 H42            0.6202    -3.8319    -9.0125 H       
  43 H43           -0.0327    -3.0626   -12.5425 H       
  44 H44           -0.6952    -0.8332   -13.3457 H       
  45 H45           -1.2975     0.9308   -11.7383 H       
  46 H46           -0.1420    -3.9852    -0.0332 H       
  47 H47            1.9099    -2.8014     4.0225 H       
  48 H48            1.2791    -1.2901     3.3165 H       
  49 H49            0.1086    -1.9643     5.4524 H       
  50 H50           -0.9867    -1.8344     4.0548 H       
  51 H51           -1.2930    -3.3785     6.5933 H       
  52 H52           -2.5323    -3.4936     5.3209 H       
  53 H53           -2.6476    -5.4898     6.7334 H       
  54 H54           -2.0353    -5.9486     5.1263 H       
  55 H55           -0.6919    -6.8531     6.8820 H       
  56 H56           -1.3361    -5.4161     3.5805 H       
  57 H57           -1.8125    -3.8072     2.9849 H       
  58 H58           -0.1764    -4.7477     1.4412 H       
  59 H59            0.9505    -5.0809     2.7826 H       
@<TRIPOS>BOND
   1    1    2 1
   2    1   34 1
   3    1   35 1
   4    1   36 1
   5    2   33 ar
   6    2    3 ar
   7    3    4 ar
   8    4    5 1
   9    4   22 ar
  10    5    6 1
  11    5   37 1
  12    6   21 1
  13    6    7 2
  14    7    8 1
  15    8    9 2
  16    8   38 1
  17    9   10 1
  18    9   21 1
  19   10   11 2
  20   10   12 am
  21   12   13 1
  22   12   39 1
  23   13   19 ar
  24   13   14 ar
  25   14   15 1
  26   14   16 ar
  27   15   40 1
  28   15   41 1
  29   15   42 1
  30   16   17 ar
  31   16   43 1
  32   17   18 ar
  33   17   44 1
  34   18   19 ar
  35   18   45 1
  36   19   20 1
  37   22   23 ar
  38   22   46 1
  39   23   24 1
  40   23   33 ar
  41   24   32 1
  42   24   25 1
  43   25   26 1
  44   25   47 1
  45   25   48 1
  46   26   27 1
  47   26   49 1
  48   26   50 1
  49   27   28 1
  50   27   31 1
  51   28   29 1
  52   28   51 1
  53   28   52 1
  54   29   30 1
  55   29   53 1
  56   29   54 1
  57   30   55 1
  58   31   32 1
  59   31   56 1
  60   31   57 1
  61   32   58 1
  62   32   59 1


@<TRIPOS>MOLECULE
C1CSCC2=C1C3=C(S2)N=C(NC3=O)C4=CC=C(C=C4)CN5C=CC=N5
42    46    1     0     0
SMALL
USER_CHARGES
@<TRIPOS>ATOM
1      O1      0.0021   -0.0041    0.0020 O.2      1 ZINC000053845290   -0.4800
2      C2     -0.0145    1.2167    0.0087 C.2      1 ZINC000053845290    0.5500
3      N3     -1.1768    1.8825    0.0290 N.2      1 ZINC000053845290   -0.5700
4      C4     -1.2127    3.1965    0.0372 C.2      1 ZINC000053845290    0.4900
5      C5     -2.5260    3.8738    0.0593 C.ar     1 ZINC000053845290   -0.0700
6      C6     -2.5958    5.2681    0.0626 C.ar     1 ZINC000053845290   -0.0900
7      C7     -3.8250    5.8940    0.0827 C.ar     1 ZINC000053845290   -0.0800
8      C8     -4.9870    5.1430    0.0996 C.ar     1 ZINC000053845290   -0.0800
9      C9     -6.3262    5.8337    0.1211 C.3      1 ZINC000053845290    0.1700
10     N10    -6.7814    6.0593   -1.2530 N.pl3    1 ZINC000053845290   -0.3700
11     C11    -7.9612    5.6619   -1.7739 C.2      1 ZINC000053845290    0.0500
12     C12    -7.9972    6.0620   -3.0660 C.2      1 ZINC000053845290   -0.2700
13     C13    -6.7984    6.7266   -3.3444 C.2      1 ZINC000053845290    0.0500
14     N14    -6.0713    6.7309   -2.2566 N.2      1 ZINC000053845290   -0.2900
15     C15    -4.9249    3.7608    0.0964 C.ar     1 ZINC000053845290   -0.1000
16     C16    -3.7024    3.1222    0.0710 C.ar     1 ZINC000053845290   -0.0400
17     N17    -0.0859    3.9529    0.0266 N.pl3    1 ZINC000053845290   -0.5900
18     C18     1.1607    3.3597    0.0051 C.2      1 ZINC000053845290    0.0700
19     C19     1.2479    1.9861    0.0008 C.2      1 ZINC000053845290   -0.2300
20     C20     2.6281    1.4901   -0.0245 C.2      1 ZINC000053845290   -0.0200
21     C21     3.5347    2.4612   -0.0430 C.2      1 ZINC000053845290   -0.2000
22     C22     5.0492    2.3045   -0.0826 C.3      1 ZINC000053845290   -0.0100
23     S23     5.4813    0.6151    0.4215 S.3      1 ZINC000053845290   -0.2300
24     C24     4.2696   -0.3561   -0.5268 C.3      1 ZINC000053845290   -0.0800
25     C25     2.8767   -0.0102   -0.0174 C.3      1 ZINC000053845290   -0.0600
26     S26     2.7715    4.0505   -0.0125 S.3      1 ZINC000053845290    0.1800
27     H27    -1.6895    5.8555    0.0498 H        1 ZINC000053845290    0.1300
28     H28    -3.8804    6.9726    0.0857 H        1 ZINC000053845290    0.1400
29     H29    -7.0491    5.2086    0.6453 H        1 ZINC000053845290    0.1100
30     H30    -6.2333    6.7906    0.6348 H        1 ZINC000053845290    0.1000
31     H31    -8.7374    5.1212   -1.2528 H        1 ZINC000053845290    0.1700
32     H32    -8.8081    5.8967   -3.7600 H        1 ZINC000053845290    0.1500
33     H33    -6.5226    7.1649   -4.2921 H        1 ZINC000053845290    0.1800
34     H34    -5.8357    3.1805    0.1101 H        1 ZINC000053845290    0.1400
35     H35    -3.6553    2.0432    0.0682 H        1 ZINC000053845290    0.1500
36     H36    -0.1570    4.9203    0.0340 H        1 ZINC000053845290    0.4200
37     H37     5.4084    2.4861   -1.0955 H        1 ZINC000053845290    0.1100
38     H38     5.5078    3.0180    0.6021 H        1 ZINC000053845290    0.1200
39     H39     4.3462   -0.1069   -1.5851 H        1 ZINC000053845290    0.0900
40     H40     4.4592   -1.4201   -0.3846 H        1 ZINC000053845290    0.1200
41     H41     2.7684   -0.3832    1.0011 H        1 ZINC000053845290    0.1000
42     H42     2.1357   -0.4959   -0.6523 H        1 ZINC000053845290    0.1100
@<TRIPOS>BOND
1     1     2     2
2     2     19    1
3     2     3     1
4     3     4     2
5     4     5     1
6     4     17    1
7     5     16    ar
8     5     6     ar
9     6     7     ar
10    6     27    1
11    7     8     ar
12    7     28    1
13    8     9     1
14    8     15    ar
15    9     10    1
16    9     29    1
17    9     30    1
18    10    14    1
19    10    11    1
20    11    12    2
21    11    31    1
22    12    13    1
23    12    32    1
24    13    14    2
25    13    33    1
26    15    16    ar
27    15    34    1
28    16    35    1
29    17    18    1
30    17    36    1
31    18    26    1
32    18    19    2
33    19    20    1
34    20    25    1
35    20    21    2
36    21    22    1
37    21    26    1
38    22    23    1
39    22    37    1
40    22    38    1
41    23    24    1
42    24    25    1
43    24    39    1
44    24    40    1
45    25    41    1
46    25    42    1
@<TRIPOS>SUBSTRUCTURE
1   ZINC000053845290 1     RESIDUE    1   A     ZIN   1


@<TRIPOS>MOLECULE
C1CN(CC2=C1NN=C2C=CC3=CC=CC=C3)C(=O)CCC4=CC=CS4
47    50    1     0     0
SMALL
USER_CHARGES
@<TRIPOS>ATOM
1      O1      0.0021   -0.0041    0.0020 O.2      1 ZINC000020201746   -0.5300
2      C2     -0.0144    1.2086    0.0087 C.2      1 ZINC000020201746    0.5200
3      C3      1.2803    1.9798    0.0005 C.3      1 ZINC000020201746   -0.1400
4      C4      2.4566    1.0015   -0.0160 C.3      1 ZINC000020201746   -0.0300
5      C5      3.7513    1.7727   -0.0242 C.2      1 ZINC000020201746   -0.1800
6      C6      4.4250    2.1557    1.0614 C.2      1 ZINC000020201746   -0.1400
7      C7      5.5924    2.8547    0.8069 C.2      1 ZINC000020201746   -0.1300
8      C8      5.8667    3.0392   -0.4854 C.2      1 ZINC000020201746   -0.2100
9      S9      4.6090    2.2987   -1.4669 S.3      1 ZINC000020201746    0.1000
10     N10    -1.1906    1.8666    0.0178 N.am     1 ZINC000020201746   -0.6200
11     C11    -1.2320    3.3365    0.0199 C.3      1 ZINC000020201746    0.1100
12     C12    -1.8797    3.8236   -1.2821 C.3      1 ZINC000020201746   -0.0800
13     C13    -3.1162    3.0015   -1.5480 C.2      1 ZINC000020201746    0.1000
14     C14    -3.3789    1.8044   -0.9720 C.2      1 ZINC000020201746   -0.2400
15     C15    -2.4680    1.1308    0.0199 C.3      1 ZINC000020201746    0.1900
16     C16    -4.6099    1.3425   -1.4673 C.2      1 ZINC000020201746    0.1200
17     C17    -5.2729    0.0759   -1.1069 C.2      1 ZINC000020201746   -0.0900
18     C18    -6.4541   -0.2438   -1.6583 C.2      1 ZINC000020201746   -0.0700
19     C19    -7.1169   -1.5102   -1.2980 C.ar     1 ZINC000020201746   -0.0600
20     C20    -6.5213   -2.3775   -0.3785 C.ar     1 ZINC000020201746   -0.1100
21     C21    -7.1475   -3.5604   -0.0458 C.ar     1 ZINC000020201746   -0.1200
22     C22    -8.3626   -3.8894   -0.6206 C.ar     1 ZINC000020201746   -0.1200
23     C23    -8.9584   -3.0354   -1.5320 C.ar     1 ZINC000020201746   -0.1200
24     C24    -8.3467   -1.8464   -1.8699 C.ar     1 ZINC000020201746   -0.1000
25     N25    -5.0668    2.2487   -2.3140 N.2      1 ZINC000020201746   -0.2800
26     N26    -4.1383    3.2982   -2.3728 N.pl3    1 ZINC000020201746   -0.4600
27     H27     1.3211    2.6120   -0.8866 H        1 ZINC000020201746    0.1000
28     H28     1.3381    2.6024    0.8933 H        1 ZINC000020201746    0.1000
29     H29     2.4158    0.3693    0.8710 H        1 ZINC000020201746    0.0900
30     H30     2.3988    0.3789   -0.9088 H        1 ZINC000020201746    0.0800
31     H31     4.0853    1.9374    2.0630 H        1 ZINC000020201746    0.1400
32     H32     6.2325    3.2230    1.5950 H        1 ZINC000020201746    0.1400
33     H33     6.7308    3.5604   -0.8702 H        1 ZINC000020201746    0.1600
34     H34    -1.8188    3.6831    0.8706 H        1 ZINC000020201746    0.0800
35     H35    -0.2178    3.7294    0.0914 H        1 ZINC000020201746    0.1000
36     H36    -2.1538    4.8739   -1.1831 H        1 ZINC000020201746    0.1000
37     H37    -1.1771    3.7036   -2.1067 H        1 ZINC000020201746    0.0900
38     H38    -2.3031    0.0938   -0.2725 H        1 ZINC000020201746    0.1000
39     H39    -2.9094    1.1708    1.0157 H        1 ZINC000020201746    0.0800
40     H40    -4.8081   -0.5946   -0.3993 H        1 ZINC000020201746    0.1400
41     H41    -6.9189    0.4267   -2.3659 H        1 ZINC000020201746    0.1300
42     H42    -5.5727   -2.1223    0.0703 H        1 ZINC000020201746    0.1300
43     H43    -6.6884   -4.2318    0.6647 H        1 ZINC000020201746    0.1200
44     H44    -8.8480   -4.8174   -0.3569 H        1 ZINC000020201746    0.1200
45     H45    -9.9066   -3.2989   -1.9768 H        1 ZINC000020201746    0.1200
46     H46    -8.8129   -1.1808   -2.5813 H        1 ZINC000020201746    0.1300
47     H47    -4.2186    4.0993   -2.9139 H        1 ZINC000020201746    0.4400
@<TRIPOS>BOND
1     1     2     2
2     2     3     1
3     2     10    am
4     3     4     1
5     3     27    1
6     3     28    1
7     4     5     1
8     4     29    1
9     4     30    1
10    5     9     1
11    5     6     2
12    6     7     1
13    6     31    1
14    7     8     2
15    7     32    1
16    8     9     1
17    8     33    1
18    10    15    1
19    10    11    1
20    11    12    1
21    11    34    1
22    11    35    1
23    12    13    1
24    12    36    1
25    12    37    1
26    13    26    1
27    13    14    2
28    14    15    1
29    14    16    1
30    15    38    1
31    15    39    1
32    16    17    1
33    16    25    2
34    17    18    2
35    17    40    1
36    18    19    1
37    18    41    1
38    19    24    ar
39    19    20    ar
40    20    21    ar
41    20    42    1
42    21    22    ar
43    21    43    1
44    22    23    ar
45    22    44    1
46    23    24    ar
47    23    45    1
48    24    46    1
49    25    26    1
50    26    47    1
@<TRIPOS>SUBSTRUCTURE
1   ZINC000020201746 1     RESIDUE    1   A     ZIN   1


@<TRIPOS>MOLECULE
CC(C)C1=CC=C(C=C1)NC(=O)CSC2=NN=NN2C3=CC=C(C=C3)N(C)C
  52   54    0    0    0
SMALL
USER_CHARGES
NO_NAME
@<TRIPOS>ATOM
    1 C1        1.7342    -1.6399    -1.5157 C.3    1 <0>      -0.1500
    2 C2        1.0100    -0.8742    -0.4065 C.3    1 <0>      -0.0600
    3 C3        0.9792     0.6160    -0.7518 C.3    1 <0>      -0.1500
    4 C4       -0.4003    -1.3896    -0.2786 C.ar   1 <0>      -0.0900
    5 C5       -1.2614    -1.3185    -1.3583 C.ar   1 <0>      -0.1000
    6 C6       -2.5545    -1.7900    -1.2444 C.ar   1 <0>      -0.1100
    7 C7       -2.9896    -2.3361    -0.0440 C.ar   1 <0>       0.1400
    8 N8       -4.2990    -2.8151     0.0746 N.am   1 <0>      -0.6600
    9 C9       -4.9007    -3.4001    -0.9800 C.2    1 <0>       0.5400
   10 O10      -4.2782    -3.5937    -2.0028 O.2    1 <0>      -0.5000
   11 C11      -6.3469    -3.8137    -0.8885 C.3    1 <0>      -0.1700
   12 S12      -6.8600    -4.5643    -2.4536 S.3    1 <0>       0.1300
   13 C13      -8.5391    -4.9419    -2.0758 C.2    1 <0>       0.1900
   14 N14      -9.1594    -4.6989    -0.9411 N.2    1 <0>      -0.3300
   15 N15     -10.3779    -5.0999    -0.9996 N.2    1 <0>      -0.0300
   16 N16     -10.6250    -5.6197    -2.1529 N.2    1 <0>      -0.0700
   17 N17      -9.4384    -5.5328    -2.9018 N.pl3  1 <0>      -0.2900
   18 C18      -9.2272    -5.9707    -4.2185 C.ar   1 <0>       0.0500
   19 C19      -8.3800    -5.2607    -5.0586 C.ar   1 <0>      -0.0600
   20 C20      -8.1721    -5.6910    -6.3535 C.ar   1 <0>      -0.1800
   21 C21      -8.8102    -6.8349    -6.8161 C.ar   1 <0>       0.2400
   22 N22      -8.5996    -7.2713    -8.1274 N.pl3  1 <0>      -0.6300
   23 C23      -7.6943    -6.5305    -9.0094 C.3    1 <0>       0.0900
   24 C24      -9.2840    -8.4695    -8.6195 C.3    1 <0>       0.0800
   25 C25      -9.6575    -7.5453    -5.9751 C.ar   1 <0>      -0.1900
   26 C26      -9.8611    -7.1170    -4.6787 C.ar   1 <0>      -0.0400
   27 C27      -2.1223    -2.4064     1.0383 C.ar   1 <0>      -0.1400
   28 C28      -0.8289    -1.9377     0.9164 C.ar   1 <0>      -0.1000
   29 H29       2.7543    -1.2672    -1.6081 H      1 <0>       0.0600
   30 H30       1.7562    -2.7015    -1.2696 H      1 <0>       0.0600
   31 H31       1.2080    -1.4964    -2.4594 H      1 <0>       0.0600
   32 H32       1.5362    -1.0177     0.5373 H      1 <0>       0.0800
   33 H33       0.4530     0.7594    -1.6955 H      1 <0>       0.0600
   34 H34       0.4633     1.1614     0.0384 H      1 <0>       0.0600
   35 H35       1.9993     0.9887    -0.8443 H      1 <0>       0.0600
   36 H36      -0.9224    -0.8937    -2.2916 H      1 <0>       0.1300
   37 H37      -3.2267    -1.7336    -2.0878 H      1 <0>       0.1300
   38 H38      -4.7737    -2.7260     0.9158 H      1 <0>       0.4200
   39 H39      -6.4676    -4.5369    -0.0819 H      1 <0>       0.1400
   40 H40      -6.9632    -2.9377    -0.6863 H      1 <0>       0.1400
   41 H41      -7.8839    -4.3714    -4.6989 H      1 <0>       0.1400
   42 H42      -7.5136    -5.1382    -7.0072 H      1 <0>       0.1400
   43 H43      -6.6839    -6.9269    -8.9088 H      1 <0>       0.0600
   44 H44      -8.0254    -6.6374   -10.0424 H      1 <0>       0.0700
   45 H45      -7.7001    -5.4761    -8.7332 H      1 <0>       0.0700
   46 H46      -9.9797    -8.8279    -7.8608 H      1 <0>       0.0800
   47 H47      -9.8324    -8.2266    -9.5296 H      1 <0>       0.0600
   48 H48      -8.5492    -9.2453    -8.8342 H      1 <0>       0.0600
   49 H49     -10.1541    -8.4345    -6.3344 H      1 <0>       0.1400
   50 H50     -10.5195    -7.6694    -4.0247 H      1 <0>       0.1400
   51 H51      -2.4577    -2.8306     1.9732 H      1 <0>       0.1300
   52 H52      -0.1539    -1.9921     1.7577 H      1 <0>       0.1300
@<TRIPOS>BOND
   1    1    2 1
   2    1   29 1
   3    1   30 1
   4    1   31 1
   5    2    3 1
   6    2    4 1
   7    2   32 1
   8    3   33 1
   9    3   34 1
  10    3   35 1
  11    4   28 ar
  12    4    5 ar
  13    5    6 ar
  14    5   36 1
  15    6    7 ar
  16    6   37 1
  17    7    8 1
  18    7   27 ar
  19    8    9 am
  20    8   38 1
  21    9   10 2
  22    9   11 1
  23   11   12 1
  24   11   39 1
  25   11   40 1
  26   12   13 1
  27   13   17 1
  28   13   14 2
  29   14   15 1
  30   15   16 2
  31   16   17 1
  32   17   18 1
  33   18   26 ar
  34   18   19 ar
  35   19   20 ar
  36   19   41 1
  37   20   21 ar
  38   20   42 1
  39   21   22 1
  40   21   25 ar
  41   22   23 1
  42   22   24 1
  43   23   43 1
  44   23   44 1
  45   23   45 1
  46   24   46 1
  47   24   47 1
  48   24   48 1
  49   25   26 ar
  50   25   49 1
  51   26   50 1
  52   27   28 ar
  53   27   51 1
  54   28   52 1


@<TRIPOS>MOLECULE
O=C(O)CCC(C(C=C3)=CC1=C3SC2=C1C=CC=C2)=O
31    33    1     0     0
SMALL
USER_CHARGES
@<TRIPOS>ATOM
1      O1      0.0021   -0.0041    0.0020 O.co2    1 ZINC000000393138   -0.7000
2      C2     -0.0145    1.2150    0.0087 C.2      1 ZINC000000393138    0.4900
3      O3      1.0330    1.8389    0.0021 O.co2    1 ZINC000000393138   -0.7000
4      C4     -1.3296    1.9507    0.0190 C.3      1 ZINC000000393138   -0.1700
5      C5     -2.4790    0.9408    0.0189 C.3      1 ZINC000000393138   -0.1400
6      C6     -3.7941    1.6764    0.0292 C.2      1 ZINC000000393138    0.3900
7      O7     -3.8106    2.8893    0.0358 O.2      1 ZINC000000393138   -0.4600
8      C8     -5.0556    0.9251    0.0311 C.ar     1 ZINC000000393138   -0.1600
9      C9     -6.2717    1.6030    0.0348 C.ar     1 ZINC000000393138   -0.0200
10     C10    -7.4768    0.8847    0.0371 C.ar     1 ZINC000000393138   -0.0800
11     C11    -7.4418   -0.5059    0.0352 C.ar     1 ZINC000000393138   -0.1000
12     C12    -6.2062   -1.1746    0.0314 C.ar     1 ZINC000000393138   -0.1000
13     C13    -5.0387   -0.4786    0.0233 C.ar     1 ZINC000000393138   -0.0500
14     S14    -9.0701   -1.1658    0.0388 S.3      1 ZINC000000393138    0.0900
15     C15    -9.8162    0.4241    0.0428 C.ar     1 ZINC000000393138   -0.1300
16     C16    -8.8514    1.4204    0.0415 C.ar     1 ZINC000000393138   -0.0500
17     C17    -9.2550    2.7694    0.0439 C.ar     1 ZINC000000393138   -0.0800
18     C18   -10.5893    3.0949    0.0479 C.ar     1 ZINC000000393138   -0.1200
19     C19   -11.5509    2.0960    0.0493 C.ar     1 ZINC000000393138   -0.1000
20     C20   -11.1729    0.7739    0.0474 C.ar     1 ZINC000000393138   -0.0800
21     H21    -1.3917    2.5717    0.9126 H        1 ZINC000000393138    0.0600
22     H22    -1.4001    2.5813   -0.8673 H        1 ZINC000000393138    0.0600
23     H23    -2.4169    0.3198   -0.8748 H        1 ZINC000000393138    0.1000
24     H24    -2.4085    0.3101    0.9052 H        1 ZINC000000393138    0.1000
25     H25    -6.2874    2.6828    0.0362 H        1 ZINC000000393138    0.1400
26     H26    -6.1838   -2.2544    0.0303 H        1 ZINC000000393138    0.1400
27     H27    -4.0965   -1.0064    0.0201 H        1 ZINC000000393138    0.1500
28     H28    -8.5112    3.5525    0.0428 H        1 ZINC000000393138    0.1300
29     H29   -10.8905    4.1321    0.0505 H        1 ZINC000000393138    0.1300
30     H30   -12.5989    2.3568    0.0525 H        1 ZINC000000393138    0.1300
31     H31   -11.9265    0.0002    0.0481 H        1 ZINC000000393138    0.1300
@<TRIPOS>BOND
1     1     2     ar
2     2     3     ar
3     2     4     1
4     4     5     1
5     4     21    1
6     4     22    1
7     5     6     1
8     5     23    1
9     5     24    1
10    6     7     2
11    6     8     1
12    8     13    ar
13    8     9     ar
14    9     10    ar
15    9     25    1
16    10    16    1
17    10    11    ar
18    11    12    ar
19    11    14    1
20    12    13    ar
21    12    26    1
22    13    27    1
23    14    15    1
24    15    20    ar
25    15    16    ar
26    16    17    ar
27    17    18    ar
28    17    28    1
29    18    19    ar
30    18    29    1
31    19    20    ar
32    19    30    1
33    20    31    1
@<TRIPOS>SUBSTRUCTURE
1   ZINC000000393138 1     RESIDUE    1   A     ZIN   1


@<TRIPOS>MOLECULE
OC(C1=C(C2=CC=CC=C2C(NC3=CC(NC(C5=C4C=CC=C5)=O)=C4C=C3)=O)C=CC=C1)=O
50    54    1     0     0
SMALL
USER_CHARGES
@<TRIPOS>ATOM
1      O1      0.0346   -0.0014    0.0169 O.co2    1 ZINC000008582204   -0.6900
2      C2      0.0082    1.2215    0.0190 C.2      1 ZINC000008582204    0.5300
3      O3      1.0540    1.8558    0.0076 O.co2    1 ZINC000008582204   -0.6800
4      C4     -1.2833    1.9305    0.0291 C.ar     1 ZINC000008582204   -0.0700
5      C5     -2.4795    1.2114    0.0422 C.ar     1 ZINC000008582204   -0.0900
6      C6     -3.6860    1.8809    0.0521 C.ar     1 ZINC000008582204   -0.1300
7      C7     -3.7200    3.2654    0.0487 C.ar     1 ZINC000008582204   -0.1400
8      C8     -2.5471    3.9945    0.0353 C.ar     1 ZINC000008582204   -0.1200
9      C9     -1.3193    3.3386    0.0315 C.ar     1 ZINC000008582204   -0.0300
10     C10    -0.0597    4.1159    0.0172 C.ar     1 ZINC000008582204    0.0600
11     C11     0.2797    4.9199    1.1021 C.ar     1 ZINC000008582204   -0.1200
12     C12     1.4558    5.6433    1.0844 C.ar     1 ZINC000008582204   -0.1000
13     C13     2.3044    5.5759   -0.0077 C.ar     1 ZINC000008582204   -0.1400
14     C14     1.9852    4.7849   -1.0929 C.ar     1 ZINC000008582204   -0.1000
15     C15     0.8052    4.0423   -1.0907 C.ar     1 ZINC000008582204   -0.0600
16     C16     0.4587    3.1945   -2.2488 C.2      1 ZINC000008582204    0.5700
17     O17    -0.5714    2.5486   -2.2428 O.2      1 ZINC000008582204   -0.4900
18     N18     1.2842    3.1366   -3.3126 N.am     1 ZINC000008582204   -0.6800
19     C19     1.0056    2.2628   -4.3659 C.ar     1 ZINC000008582204    0.2200
20     C20     2.0508    1.6353   -5.0395 C.ar     1 ZINC000008582204   -0.1700
21     C21     1.7842    0.7728   -6.0787 C.ar     1 ZINC000008582204   -0.0500
22     C22     0.4647    0.5269   -6.4576 C.ar     1 ZINC000008582204   -0.1300
23     C23    -0.5924    1.1572   -5.7815 C.ar     1 ZINC000008582204    0.2000
24     C24    -0.3093    2.0211   -4.7308 C.ar     1 ZINC000008582204   -0.1600
25     N25    -1.9079    0.9231   -6.1475 N.am     1 ZINC000008582204   -0.6400
26     C26    -2.2366    0.0926   -7.1530 C.2      1 ZINC000008582204    0.5600
27     O27    -3.4075   -0.0801   -7.4360 O.2      1 ZINC000008582204   -0.5300
28     C28    -1.1907   -0.6074   -7.9126 C.ar     1 ZINC000008582204   -0.1500
29     C29    -1.5064   -1.4721   -8.9594 C.ar     1 ZINC000008582204   -0.0500
30     C30    -0.4948   -2.1086   -9.6468 C.ar     1 ZINC000008582204   -0.1400
31     C31     0.8330   -1.8974   -9.3069 C.ar     1 ZINC000008582204   -0.0800
32     C32     1.1662   -1.0457   -8.2737 C.ar     1 ZINC000008582204   -0.1300
33     C33     0.1604   -0.3935   -7.5686 C.ar     1 ZINC000008582204    0.0200
34     H34    -2.4608    0.1316    0.0442 H        1 ZINC000008582204    0.1200
35     H35    -4.6098    1.3216    0.0622 H        1 ZINC000008582204    0.1100
36     H36    -4.6703    3.7785    0.0561 H        1 ZINC000008582204    0.1100
37     H37    -2.5826    5.0739    0.0320 H        1 ZINC000008582204    0.1100
38     H38    -0.3771    4.9780    1.9574 H        1 ZINC000008582204    0.1200
39     H39     1.7153    6.2661    1.9277 H        1 ZINC000008582204    0.1200
40     H40     3.2216    6.1461   -0.0105 H        1 ZINC000008582204    0.1200
41     H41     2.6515    4.7377   -1.9416 H        1 ZINC000008582204    0.1200
42     H42     2.0717    3.7018   -3.3467 H        1 ZINC000008582204    0.4100
43     H43     3.0726    1.8262   -4.7461 H        1 ZINC000008582204    0.1300
44     H44     2.5959    0.2873   -6.6002 H        1 ZINC000008582204    0.1400
45     H45    -1.1143    2.5113   -4.2036 H        1 ZINC000008582204    0.1500
46     H46    -2.6163    1.3735   -5.6616 H        1 ZINC000008582204    0.4200
47     H47    -2.5378   -1.6428   -9.2302 H        1 ZINC000008582204    0.1400
48     H48    -0.7390   -2.7787  -10.4579 H        1 ZINC000008582204    0.1300
49     H49     1.6131   -2.4042   -9.8554 H        1 ZINC000008582204    0.1300
50     H50     2.2023   -0.8868   -8.0138 H        1 ZINC000008582204    0.1300
@<TRIPOS>BOND
1     1     2     ar
2     2     3     ar
3     2     4     1
4     4     9     ar
5     4     5     ar
6     5     6     ar
7     5     34    1
8     6     7     ar
9     6     35    1
10    7     8     ar
11    7     36    1
12    8     9     ar
13    8     37    1
14    9     10    1
15    10    15    ar
16    10    11    ar
17    11    12    ar
18    11    38    1
19    12    13    ar
20    12    39    1
21    13    14    ar
22    13    40    1
23    14    15    ar
24    14    41    1
25    15    16    1
26    16    17    2
27    16    18    am
28    18    19    1
29    18    42    1
30    19    24    ar
31    19    20    ar
32    20    21    ar
33    20    43    1
34    21    22    ar
35    21    44    1
36    22    33    1
37    22    23    ar
38    23    24    ar
39    23    25    1
40    24    45    1
41    25    26    am
42    25    46    1
43    26    27    2
44    26    28    1
45    28    33    ar
46    28    29    ar
47    29    30    ar
48    29    47    1
49    30    31    ar
50    30    48    1
51    31    32    ar
52    31    49    1
53    32    33    ar
54    32    50    1
@<TRIPOS>SUBSTRUCTURE
1   ZINC000008582204 1     RESIDUE    1   A     ZIN   1


@<TRIPOS>MOLECULE
S=C(NC(/C1=C/C2=CC([N+]([O-])=O)=C(N(CC(C)C)CC(C)C)C=C2)=O)NC1=O
52    53    1     0     0
SMALL
USER_CHARGES
@<TRIPOS>ATOM
1      C1     -1.6433    1.5942   -0.4085 C.3      1 ZINC000004180848   -0.1500
2      C2     -1.0450    0.1866   -0.3678 C.3      1 ZINC000004180848   -0.0900
3      C3     -0.1822    0.0353    0.8866 C.3      1 ZINC000004180848   -0.1500
4      C4     -2.1732   -0.8464   -0.3385 C.3      1 ZINC000004180848    0.0600
5      N5     -1.6040   -2.1963   -0.4469 N.3      1 ZINC000004180848   -0.5000
6      C6     -2.6445   -3.2208   -0.2867 C.3      1 ZINC000004180848    0.0700
7      C7     -3.2080   -3.1576    1.1344 C.3      1 ZINC000004180848   -0.0900
8      C8     -4.3429   -4.1735    1.2786 C.3      1 ZINC000004180848   -0.1500
9      C9     -2.0999   -3.4850    2.1374 C.3      1 ZINC000004180848   -0.1400
10     C10    -0.9291   -2.3565   -1.6491 C.ar     1 ZINC000004180848    0.2100
11     C11    -1.5756   -2.0742   -2.8513 C.ar     1 ZINC000004180848   -0.1600
12     C12    -0.9168   -2.2299   -4.0362 C.ar     1 ZINC000004180848    0.0300
13     C13     0.4147   -2.6750   -4.0428 C.ar     1 ZINC000004180848   -0.1300
14     C14     1.1255   -2.8432   -5.3088 C.2      1 ZINC000004180848    0.1500
15     C15     1.0510   -1.8613   -6.2790 C.2      1 ZINC000004180848   -0.2800
16     C16     0.4700   -0.5353   -5.9908 C.2      1 ZINC000004180848    0.5600
17     O17     0.0384   -0.2690   -4.8851 O.2      1 ZINC000004180848   -0.4600
18     N18     0.4314    0.3732   -6.9873 N.am     1 ZINC000004180848   -0.6200
19     C19     0.9033    0.0932   -8.2100 C.2      1 ZINC000004180848    0.5400
20     S20     0.8111    1.3092   -9.4116 S.2      1 ZINC000004180848   -0.4800
21     N21     1.4439   -1.0872   -8.5429 N.am     1 ZINC000004180848   -0.6200
22     C22     1.5546   -2.0902   -7.6476 C.2      1 ZINC000004180848    0.5600
23     O23     2.0476   -3.1569   -7.9619 O.2      1 ZINC000004180848   -0.4600
24     C24     1.0613   -2.9575   -2.8287 C.ar     1 ZINC000004180848   -0.0100
25     C25     0.3948   -2.7937   -1.6496 C.ar     1 ZINC000004180848   -0.0400
26     N26     1.0751   -3.0911   -0.3690 N.pl3    1 ZINC000004180848    0.0300
27     O27     2.2584   -3.3797   -0.3606 O.2      1 ZINC000004180848   -0.2000
28     O28     0.4515   -3.0473    0.6764 O.2      1 ZINC000004180848   -0.0900
29     H29    -0.8396    2.3302   -0.4294 H        1 ZINC000004180848    0.0600
30     H30    -2.2580    1.7020   -1.3022 H        1 ZINC000004180848    0.0500
31     H31    -2.2586    1.7532    0.4771 H        1 ZINC000004180848    0.0600
32     H32    -0.4297    0.0277   -1.2534 H        1 ZINC000004180848    0.0600
33     H33     0.6636    0.7206    0.8306 H        1 ZINC000004180848    0.0500
34     H34    -0.7795    0.2666    1.7685 H        1 ZINC000004180848    0.0600
35     H35     0.1841   -0.9891    0.9542 H        1 ZINC000004180848    0.0800
36     H36    -2.7226   -0.7580    0.5988 H        1 ZINC000004180848    0.1000
37     H37    -2.8499   -0.6692   -1.1744 H        1 ZINC000004180848    0.0400
38     H38    -3.4455   -3.0403   -1.0035 H        1 ZINC000004180848    0.0400
39     H39    -2.2141   -4.2065   -0.4634 H        1 ZINC000004180848    0.0800
40     H40    -3.5902   -2.1557    1.3294 H        1 ZINC000004180848    0.0700
41     H41    -3.9438   -5.1820    1.1700 H        1 ZINC000004180848    0.0600
42     H42    -4.8019   -4.0683    2.2617 H        1 ZINC000004180848    0.0600
43     H43    -5.0915   -3.9939    0.5070 H        1 ZINC000004180848    0.0500
44     H44    -1.2914   -2.7612    2.0346 H        1 ZINC000004180848    0.0800
45     H45    -2.5014   -3.4400    3.1498 H        1 ZINC000004180848    0.0500
46     H46    -1.7177   -4.4869    1.9423 H        1 ZINC000004180848    0.0500
47     H47    -2.5999   -1.7318   -2.8451 H        1 ZINC000004180848    0.1500
48     H48    -1.4189   -2.0115   -4.9671 H        1 ZINC000004180848    0.1400
49     H49     1.7088   -3.7346   -5.4863 H        1 ZINC000004180848    0.1700
50     H50     0.0528    1.2495   -6.8149 H        1 ZINC000004180848    0.4500
51     H51     1.7662   -1.2222   -9.4478 H        1 ZINC000004180848    0.4500
52     H52     2.0855   -3.3002   -2.8282 H        1 ZINC000004180848    0.1600
@<TRIPOS>BOND
1     1     2     1
2     1     29    1
3     1     30    1
4     1     31    1
5     2     3     1
6     2     4     1
7     2     32    1
8     3     33    1
9     3     34    1
10    3     35    1
11    4     5     1
12    4     36    1
13    4     37    1
14    5     6     1
15    5     10    1
16    6     7     1
17    6     38    1
18    6     39    1
19    7     8     1
20    7     9     1
21    7     40    1
22    8     41    1
23    8     42    1
24    8     43    1
25    9     44    1
26    9     45    1
27    9     46    1
28    10    25    ar
29    10    11    ar
30    11    12    ar
31    11    47    1
32    12    13    ar
33    12    48    1
34    13    14    1
35    13    24    ar
36    14    15    2
37    14    49    1
38    15    22    1
39    15    16    1
40    16    17    2
41    16    18    am
42    18    19    am
43    18    50    1
44    19    20    2
45    19    21    am
46    21    22    am
47    21    51    1
48    22    23    2
49    24    25    ar
50    24    52    1
51    25    26    1
52    26    27    2
53    26    28    2
@<TRIPOS>SUBSTRUCTURE
1   ZINC000004180848 1     RESIDUE    1   A     ZIN   1


@<TRIPOS>MOLECULE
CN1CCN(C2=CC=C(N3C=C(C4=C(OCC5CCNCC5)C=NC=C4)C=N3)C=C2)CC1
66    70    1     0     0
SMALL
USER_CHARGES
@<TRIPOS>ATOM
1      C1     -0.0178    1.4648    0.0101 C.3      1 ZINC000584904672   -0.0500
2      N2      0.0021   -0.0041    0.0020 N.4      1 ZINC000584904672   -0.3900
3      H3     -0.9446   -0.3531    0.0092 H        1 ZINC000584904672    0.4200
4      C4      0.7119   -0.4904    1.1925 C.3      1 ZINC000584904672    0.0000
5      C5      0.7166   -2.0206    1.1942 C.3      1 ZINC000584904672    0.0200
6      N6      1.3783   -2.5070   -0.0247 N.3      1 ZINC000584904672   -0.4900
7      C7      1.4497   -3.9031   -0.0329 C.ar     1 ZINC000584904672    0.0800
8      C8      0.9236   -4.6319    1.0262 C.ar     1 ZINC000584904672   -0.1400
9      C9      0.9938   -6.0103    1.0176 C.ar     1 ZINC000584904672   -0.0900
10     C10     1.5904   -6.6686   -0.0496 C.ar     1 ZINC000584904672    0.1500
11     N11     1.6616   -8.0695   -0.0580 N.pl3    1 ZINC000584904672   -0.3200
12     C12     2.2171   -8.8282   -1.0271 C.2      1 ZINC000584904672    0.0800
13     C13     2.0815  -10.1352   -0.6560 C.2      1 ZINC000584904672   -0.1800
14     C14     2.5488  -11.3170   -1.4215 C.ar     1 ZINC000584904672    0.0100
15     C15     2.2442  -11.4605   -2.7769 C.ar     1 ZINC000584904672   -0.1300
16     C16     2.6983  -12.5751   -3.4521 C.ar     1 ZINC000584904672    0.0800
17     N17     3.4110  -13.4987   -2.8364 N.ar     1 ZINC000584904672   -0.4500
18     C18     3.7230  -13.4056   -1.5577 C.ar     1 ZINC000584904672    0.0300
19     C19     3.3136  -12.3180   -0.8056 C.ar     1 ZINC000584904672    0.0800
20     O20     3.6383  -12.2272    0.5110 O.3      1 ZINC000584904672   -0.3000
21     C21     4.4101  -13.2953    1.0640 C.3      1 ZINC000584904672    0.0600
22     C22     4.6754  -13.0190    2.5453 C.3      1 ZINC000584904672   -0.1000
23     C23     3.3525  -13.0462    3.3162 C.3      1 ZINC000584904672   -0.1400
24     C24     3.6333  -12.8484    4.8074 C.3      1 ZINC000584904672   -0.0100
25     N25     4.5057  -13.9248    5.2917 N.4      1 ZINC000584904672   -0.5100
26     H26     4.6454  -13.8217    6.2856 H        1 ZINC000584904672    0.4300
27     H27     4.0730  -14.8169    5.1046 H        1 ZINC000584904672    0.4300
28     C28     5.8028  -13.8605    4.6076 C.3      1 ZINC000584904672    0.0000
29     C29     5.6055  -14.0973    3.1087 C.3      1 ZINC000584904672   -0.1400
30     C30     1.4172  -10.1572    0.5865 C.2      1 ZINC000584904672    0.0900
31     N31     1.1744   -8.9224    0.9398 N.2      1 ZINC000584904672   -0.2900
32     C32     2.1160   -5.9405   -1.1087 C.ar     1 ZINC000584904672   -0.1100
33     C33     2.0417   -4.5622   -1.1029 C.ar     1 ZINC000584904672   -0.1000
34     C34     0.6932   -2.0076   -1.2253 C.3      1 ZINC000584904672    0.0200
35     C35     0.6890   -0.4775   -1.2069 C.3      1 ZINC000584904672    0.0000
36     H36     1.0047    1.8421    0.0024 H        1 ZINC000584904672    0.1200
37     H37    -0.5450    1.8259   -0.8730 H        1 ZINC000584904672    0.1300
38     H38    -0.5280    1.8163    0.9069 H        1 ZINC000584904672    0.1300
39     H39     1.7384   -0.1239    1.1783 H        1 ZINC000584904672    0.1400
40     H40     0.2090   -0.1276    2.0888 H        1 ZINC000584904672    0.1400
41     H41     1.2562   -2.3817    2.0697 H        1 ZINC000584904672    0.1300
42     H42    -0.3095   -2.3874    1.2221 H        1 ZINC000584904672    0.0700
43     H43     0.4599   -4.1199    1.8565 H        1 ZINC000584904672    0.1400
44     H44     0.5851   -6.5770    1.8412 H        1 ZINC000584904672    0.1400
45     H45     2.6835   -8.4669   -1.9317 H        1 ZINC000584904672    0.1800
46     H46     1.6610  -10.7098   -3.2895 H        1 ZINC000584904672    0.1400
47     H47     2.4664  -12.6931   -4.5003 H        1 ZINC000584904672    0.1700
48     H48     4.3085  -14.1854   -1.0933 H        1 ZINC000584904672    0.1600
49     H49     3.8609  -14.2312    0.9616 H        1 ZINC000584904672    0.0700
50     H50     5.3589  -13.3708    0.5328 H        1 ZINC000584904672    0.0800
51     H51     5.1428  -12.0405    2.6555 H        1 ZINC000584904672    0.1000
52     H52     2.7060  -12.2449    2.9582 H        1 ZINC000584904672    0.1200
53     H53     2.8614  -14.0071    3.1626 H        1 ZINC000584904672    0.0900
54     H54     4.1241  -11.8871    4.9598 H        1 ZINC000584904672    0.1300
55     H55     2.6934  -12.8670    5.3592 H        1 ZINC000584904672    0.1400
56     H56     6.2474  -12.8777    4.7643 H        1 ZINC000584904672    0.1300
57     H57     6.4646  -14.6264    5.0119 H        1 ZINC000584904672    0.1400
58     H58     5.1611  -15.0800    2.9508 H        1 ZINC000584904672    0.0900
59     H59     6.5694  -14.0474    2.6024 H        1 ZINC000584904672    0.1200
60     H60     1.1573  -11.0407    1.1507 H        1 ZINC000584904672    0.1900
61     H61     2.5796   -6.4528   -1.9387 H        1 ZINC000584904672    0.1400
62     H62     2.4503   -3.9959   -1.9268 H        1 ZINC000584904672    0.1400
63     H63     1.2157   -2.3592   -2.1150 H        1 ZINC000584904672    0.1300
64     H64    -0.3333   -2.3742   -1.2373 H        1 ZINC000584904672    0.0700
65     H65     0.1689   -0.1049   -2.0894 H        1 ZINC000584904672    0.1400
66     H66     1.7157   -0.1113   -1.2087 H        1 ZINC000584904672    0.1400
@<TRIPOS>BOND
1     1     2     1
2     1     36    1
3     1     37    1
4     1     38    1
5     2     3     1
6     2     35    1
7     2     4     1
8     4     5     1
9     4     39    1
10    4     40    1
11    5     6     1
12    5     41    1
13    5     42    1
14    6     7     1
15    6     34    1
16    7     33    ar
17    7     8     ar
18    8     9     ar
19    8     43    1
20    9     10    ar
21    9     44    1
22    10    11    1
23    10    32    ar
24    11    31    1
25    11    12    1
26    12    13    2
27    12    45    1
28    13    14    1
29    13    30    1
30    14    19    ar
31    14    15    ar
32    15    16    ar
33    15    46    1
34    16    17    ar
35    16    47    1
36    17    18    ar
37    18    19    ar
38    18    48    1
39    19    20    1
40    20    21    1
41    21    22    1
42    21    49    1
43    21    50    1
44    22    29    1
45    22    23    1
46    22    51    1
47    23    24    1
48    23    52    1
49    23    53    1
50    24    25    1
51    24    54    1
52    24    55    1
53    25    26    1
54    25    27    1
55    25    28    1
56    28    29    1
57    28    56    1
58    28    57    1
59    29    58    1
60    29    59    1
61    30    31    2
62    30    60    1
63    32    33    ar
64    32    61    1
65    33    62    1
66    34    35    1
67    34    63    1
68    34    64    1
69    35    65    1
70    35    66    1
@<TRIPOS>SUBSTRUCTURE
1   ZINC000584904672 1     RESIDUE    1   A     ZIN   1


@<TRIPOS>MOLECULE
O=C(C3=C(OC)C=C(C4=CNN=C4)C=C3)NC1=CC2=C(CCNCC2)C=C1
50    53    1     0     0
SMALL
USER_CHARGES
@<TRIPOS>ATOM
1      C1     -0.0223    1.4247    0.0133 C.3      1 ZINC000205767906    0.0200
2      O2     -0.0018   -0.0041    0.0047 O.3      1 ZINC000205767906   -0.2800
3      C3      0.6287   -0.6173    1.0378 C.ar     1 ZINC000205767906    0.2100
4      C4      1.2108    0.1355    2.0421 C.ar     1 ZINC000205767906   -0.2200
5      C5      1.8566   -0.5007    3.0997 C.ar     1 ZINC000205767906    0.0900
6      C6      2.4811    0.3044    4.1770 C.2      1 ZINC000205767906   -0.2300
7      C7      3.1481   -0.1818    5.2651 C.2      1 ZINC000205767906    0.1000
8      N8      3.5583    0.8727    5.9962 N.pl3    1 ZINC000205767906   -0.4700
9      N9      3.1391    2.0428    5.3518 N.2      1 ZINC000205767906   -0.2900
10     C10     2.5001    1.7111    4.2618 C.2      1 ZINC000205767906    0.0700
11     C11     1.9168   -1.8950    3.1479 C.ar     1 ZINC000205767906   -0.1700
12     C12     1.3446   -2.6438    2.1604 C.ar     1 ZINC000205767906   -0.0400
13     C13     0.6885   -2.0186    1.0955 C.ar     1 ZINC000205767906   -0.2000
14     C14     0.0716   -2.8283    0.0308 C.2      1 ZINC000205767906    0.5700
15     O15    -0.4988   -2.2830   -0.8948 O.2      1 ZINC000205767906   -0.5000
16     N16     0.1392   -4.1734    0.0823 N.am     1 ZINC000205767906   -0.6800
17     C17    -0.5285   -4.9442   -0.8748 C.ar     1 ZINC000205767906    0.1700
18     C18    -1.0989   -6.1581   -0.5149 C.ar     1 ZINC000205767906   -0.1400
19     C19    -1.7578   -6.9201   -1.4615 C.ar     1 ZINC000205767906   -0.0800
20     C20    -1.8455   -6.4672   -2.7652 C.ar     1 ZINC000205767906   -0.1300
21     C21    -2.5663   -7.3016   -3.8049 C.3      1 ZINC000205767906   -0.0900
22     C22    -3.8565   -6.5726   -4.1929 C.3      1 ZINC000205767906   -0.0100
23     N23    -3.6091   -5.5951   -5.2376 N.4      1 ZINC000205767906   -0.5000
24     H24    -3.1099   -6.0518   -5.9861 H        1 ZINC000205767906    0.4200
25     H25    -4.4993   -5.2844   -5.5970 H        1 ZINC000205767906    0.4300
26     C26    -2.8518   -4.4240   -4.8338 C.3      1 ZINC000205767906   -0.0100
27     C27    -1.3887   -4.7833   -4.5567 C.3      1 ZINC000205767906   -0.1000
28     C28    -1.2831   -5.2658   -3.1240 C.ar     1 ZINC000205767906   -0.0900
29     C29    -0.6268   -4.4934   -2.1862 C.ar     1 ZINC000205767906   -0.1100
30     H30     0.9999    1.8028   -0.0015 H        1 ZINC000205767906    0.0600
31     H31    -0.5560    1.7857   -0.8658 H        1 ZINC000205767906    0.1000
32     H32    -0.5264    1.7754    0.9139 H        1 ZINC000205767906    0.0600
33     H33     1.1650    1.2139    2.0060 H        1 ZINC000205767906    0.1400
34     H34     3.3158   -1.2231    5.4977 H        1 ZINC000205767906    0.1900
35     H35     4.0579    0.8289    6.8265 H        1 ZINC000205767906    0.4500
36     H36     2.0575    2.3952    3.5529 H        1 ZINC000205767906    0.1900
37     H37     2.4187   -2.3831    3.9702 H        1 ZINC000205767906    0.1300
38     H38     1.3952   -3.7217    2.2038 H        1 ZINC000205767906    0.1300
39     H39     0.6509   -4.6068    0.7831 H        1 ZINC000205767906    0.4100
40     H40    -1.0275   -6.5070    0.5047 H        1 ZINC000205767906    0.1300
41     H41    -2.2015   -7.8649   -1.1844 H        1 ZINC000205767906    0.1300
42     H42    -1.9330   -7.4213   -4.6839 H        1 ZINC000205767906    0.0900
43     H43    -2.8075   -8.2797   -3.3887 H        1 ZINC000205767906    0.1200
44     H44    -4.5854   -7.3004   -4.5493 H        1 ZINC000205767906    0.1400
45     H45    -4.2583   -6.0651   -3.3159 H        1 ZINC000205767906    0.1300
46     H46    -2.8930   -3.6796   -5.6290 H        1 ZINC000205767906    0.1400
47     H47    -3.2948   -4.0056   -3.9300 H        1 ZINC000205767906    0.1300
48     H48    -1.0693   -5.5741   -5.2355 H        1 ZINC000205767906    0.1000
49     H49    -0.7611   -3.9030   -4.6955 H        1 ZINC000205767906    0.1200
50     H50    -0.1895   -3.5477   -2.4704 H        1 ZINC000205767906    0.1500
@<TRIPOS>BOND
1     1     2     1
2     1     30    1
3     1     31    1
4     1     32    1
5     2     3     1
6     3     13    ar
7     3     4     ar
8     4     5     ar
9     4     33    1
10    5     6     1
11    5     11    ar
12    6     10    1
13    6     7     2
14    7     8     1
15    7     34    1
16    8     9     1
17    8     35    1
18    9     10    2
19    10    36    1
20    11    12    ar
21    11    37    1
22    12    13    ar
23    12    38    1
24    13    14    1
25    14    15    2
26    14    16    am
27    16    17    1
28    16    39    1
29    17    29    ar
30    17    18    ar
31    18    19    ar
32    18    40    1
33    19    20    ar
34    19    41    1
35    20    28    ar
36    20    21    1
37    21    22    1
38    21    42    1
39    21    43    1
40    22    23    1
41    22    44    1
42    22    45    1
43    23    24    1
44    23    25    1
45    23    26    1
46    26    27    1
47    26    46    1
48    26    47    1
49    27    28    1
50    27    48    1
51    27    49    1
52    28    29    ar
53    29    50    1
@<TRIPOS>SUBSTRUCTURE
1   ZINC000205767906 1     RESIDUE    1   A     ZIN   1


@<TRIPOS>MOLECULE
O=C(C2=C(N)C(C#N)=C(NCC=C)S2)C1=CC=CS1
  30   31    0    0    0
SMALL
USER_CHARGES
NO_NAME
@<TRIPOS>ATOM
    1 C1       -0.0157     1.3058     0.0092 C.2    1 <0>      -0.1500
    2 C2        0.0021    -0.0041     0.0020 C.2    1 <0>      -0.1900
    3 C3       -1.2926    -0.7753     0.0102 C.3    1 <0>       0.1300
    4 N4       -1.3176    -1.6997    -1.1260 N.pl3  1 <0>      -0.6800
    5 C5       -2.4080    -2.5147    -1.3259 C.2    1 <0>       0.2000
    6 C6       -2.5284    -3.4207    -2.3577 C.2    1 <0>      -0.2400
    7 C7       -1.5138    -3.6137    -3.3498 C.1    1 <0>       0.2800
    8 N8       -0.7090    -3.7668    -4.1367 N.1    1 <0>      -0.4300
    9 C9       -3.7274    -4.1322    -2.3481 C.2    1 <0>       0.3800
   10 N10      -4.0535    -5.0929    -3.2948 N.pl3  1 <0>      -0.8200
   11 C11      -4.5522    -3.7862    -1.3075 C.2    1 <0>      -0.4500
   12 C12      -5.8235    -4.3481    -1.0591 C.2    1 <0>       0.5100
   13 O13      -6.2644    -5.2116    -1.8005 O.2    1 <0>      -0.4900
   14 C14      -6.6156    -3.8933     0.0917 C.2    1 <0>      -0.2800
   15 C15      -7.8504    -4.3619     0.4381 C.2    1 <0>      -0.0600
   16 C16      -8.3650    -3.7595     1.5632 C.2    1 <0>      -0.1500
   17 C17      -7.5796    -2.8305     2.1185 C.2    1 <0>      -0.2200
   18 S18      -6.1218    -2.6639     1.2478 S.3    1 <0>       0.1900
   19 S19      -3.7890    -2.5453    -0.3265 S.3    1 <0>       0.2400
   20 H20       0.9122     1.8585     0.0033 H      1 <0>       0.1100
   21 H21      -0.9582     1.8330     0.0166 H      1 <0>       0.1000
   22 H22       0.9446    -0.5313    -0.0098 H      1 <0>       0.1200
   23 H23      -1.3737    -1.3393     0.9394 H      1 <0>       0.0900
   24 H24      -2.1295    -0.0812    -0.0676 H      1 <0>       0.0800
   25 H25      -0.5655    -1.7372    -1.7373 H      1 <0>       0.4100
   26 H26      -3.4325    -5.2985    -4.0110 H      1 <0>       0.4000
   27 H27      -4.9026    -5.5588    -3.2405 H      1 <0>       0.4200
   28 H28      -8.3713    -5.1289    -0.1158 H      1 <0>       0.1500
   29 H29      -9.3325    -4.0178     1.9678 H      1 <0>       0.1500
   30 H30      -7.8324    -2.2642     3.0027 H      1 <0>       0.1700
@<TRIPOS>BOND
   1    1    2 2
   2    1   20 1
   3    1   21 1
   4    2    3 1
   5    2   22 1
   6    3    4 1
   7    3   23 1
   8    3   24 1
   9    4    5 1
  10    4   25 1
  11    5   19 1
  12    5    6 2
  13    6    7 1
  14    6    9 1
  15    7    8 3
  16    9   10 1
  17    9   11 2
  18   10   26 1
  19   10   27 1
  20   11   12 1
  21   11   19 1
  22   12   13 2
  23   12   14 1
  24   14   18 1
  25   14   15 2
  26   15   16 1
  27   15   28 1
  28   16   17 2
  29   16   29 1
  30   17   18 1
  31   17   30 1


@<TRIPOS>MOLECULE
FC1=CC=C(C(C2=C(N)C(C#N)=C(NCC=C)S2)=O)C=C1
33    34    1     0     0
SMALL
USER_CHARGES
@<TRIPOS>ATOM
1      C1     -0.2590    1.5535   -0.0368 C.2      1 ZINC000002196784   -0.1500
2      C2     -0.1680    0.2557   -0.1906 C.2      1 ZINC000002196784   -0.1900
3      C3     -1.4066   -0.5999   -0.1211 C.3      1 ZINC000002196784    0.1300
4      N4     -1.5152   -1.4018   -1.3423 N.pl3    1 ZINC000002196784   -0.6800
5      C5     -2.5731   -2.2649   -1.5063 C.2      1 ZINC000002196784    0.1900
6      C6     -2.7647   -3.0661   -2.6122 C.2      1 ZINC000002196784   -0.2400
7      C7     -1.8662   -3.0856   -3.7271 C.1      1 ZINC000002196784    0.2700
8      N8     -1.1534   -3.1011   -4.6115 N.1      1 ZINC000002196784   -0.4300
9      C9     -3.9109   -3.8555   -2.5467 C.2      1 ZINC000002196784    0.3800
10     N10    -4.2923   -4.7328   -3.5498 N.pl3    1 ZINC000002196784   -0.8200
11     C11    -4.6249   -3.6759   -1.3857 C.2      1 ZINC000002196784   -0.4500
12     C12    -5.8199   -4.3452   -1.0595 C.2      1 ZINC000002196784    0.4800
13     O13    -6.2367   -5.2355   -1.7811 O.2      1 ZINC000002196784   -0.4900
14     C14    -6.5697   -3.9685    0.1587 C.ar     1 ZINC000002196784   -0.1600
15     C15    -6.4885   -2.6669    0.6567 C.ar     1 ZINC000002196784   -0.0600
16     C16    -7.1897   -2.3209    1.7921 C.ar     1 ZINC000002196784   -0.1600
17     C17    -7.9745   -3.2629    2.4391 C.ar     1 ZINC000002196784    0.1200
18     F18    -8.6597   -2.9187    3.5514 F        1 ZINC000002196784   -0.1300
19     C19    -8.0590   -4.5568    1.9484 C.ar     1 ZINC000002196784   -0.1600
20     C20    -7.3656   -4.9119    0.8110 C.ar     1 ZINC000002196784   -0.0400
21     S21    -3.8202   -2.4935   -0.3664 S.3      1 ZINC000002196784    0.2500
22     H22     0.6287    2.1667   -0.0865 H        1 ZINC000002196784    0.1100
23     H23    -1.2222    2.0107    0.1353 H        1 ZINC000002196784    0.1000
24     H24     0.7946   -0.2010   -0.3671 H        1 ZINC000002196784    0.1200
25     H25    -1.3436   -1.2610    0.7432 H        1 ZINC000002196784    0.0900
26     H26    -2.2847    0.0389   -0.0267 H        1 ZINC000002196784    0.0800
27     H27    -0.8409   -1.3240   -2.0352 H        1 ZINC000002196784    0.4100
28     H28    -3.7504   -4.8203   -4.3496 H        1 ZINC000002196784    0.4000
29     H29    -5.1011   -5.2594   -3.4520 H        1 ZINC000002196784    0.4200
30     H30    -5.8771   -1.9324    0.1535 H        1 ZINC000002196784    0.1400
31     H31    -7.1272   -1.3142    2.1784 H        1 ZINC000002196784    0.1400
32     H32    -8.6720   -5.2868    2.4560 H        1 ZINC000002196784    0.1400
33     H33    -7.4321   -5.9201    0.4295 H        1 ZINC000002196784    0.1400
@<TRIPOS>BOND
1     1     2     2
2     1     22    1
3     1     23    1
4     2     3     1
5     2     24    1
6     3     4     1
7     3     25    1
8     3     26    1
9     4     5     1
10    4     27    1
11    5     21    1
12    5     6     2
13    6     7     1
14    6     9     1
15    7     8     3
16    9     10    1
17    9     11    2
18    10    28    1
19    10    29    1
20    11    12    1
21    11    21    1
22    12    13    2
23    12    14    1
24    14    20    ar
25    14    15    ar
26    15    16    ar
27    15    30    1
28    16    17    ar
29    16    31    1
30    17    18    1
31    17    19    ar
32    19    20    ar
33    19    32    1
34    20    33    1
@<TRIPOS>SUBSTRUCTURE
1   ZINC000002196784 1     RESIDUE    1   A     ZIN   1


@<TRIPOS>MOLECULE
ClC1=CC=C(C(C2=C(N)C(C#N)=C(NCC=C)S2)=O)C=C1
33    34    1     0     0
SMALL
USER_CHARGES
@<TRIPOS>ATOM
1      C1      0.2179    1.5560    0.0547 C.2      1 ZINC000003087731   -0.1500
2      C2      0.1629    0.2547    0.1949 C.2      1 ZINC000003087731   -0.1900
3      C3      1.4246   -0.5656    0.1167 C.3      1 ZINC000003087731    0.1300
4      N4      1.5556   -1.3769    1.3295 N.pl3    1 ZINC000003087731   -0.6700
5      C5      2.6369   -2.2120    1.4845 C.2      1 ZINC000003087731    0.1900
6      C6      2.8507   -3.0192    2.5821 C.2      1 ZINC000003087731   -0.2400
7      C7      1.9538   -3.0742    3.6971 C.1      1 ZINC000003087731    0.2700
8      N8      1.2423   -3.1179    4.5816 N.1      1 ZINC000003087731   -0.4300
9      C9      4.0179   -3.7762    2.5084 C.2      1 ZINC000003087731    0.3800
10     N10     4.4234   -4.6531    3.5022 N.pl3    1 ZINC000003087731   -0.8200
11     C11     4.7264   -3.5651    1.3490 C.2      1 ZINC000003087731   -0.4500
12     C12     5.9391   -4.1978    1.0159 C.2      1 ZINC000003087731    0.4800
13     O13     6.3803   -5.0838    1.7281 O.2      1 ZINC000003087731   -0.4900
14     C14     6.6782   -3.7877   -0.1985 C.ar     1 ZINC000003087731   -0.1400
15     C15     6.5618   -2.4837   -0.6825 C.ar     1 ZINC000003087731   -0.0800
16     C16     7.2531   -2.1071   -1.8149 C.ar     1 ZINC000003087731   -0.1100
17     C17     8.0613   -3.0201   -2.4718 C.ar     1 ZINC000003087731   -0.0200
18     Cl18    8.9285   -2.5390   -3.8966 Cl       1 ZINC000003087731   -0.0600
19     C19     8.1807   -4.3154   -1.9961 C.ar     1 ZINC000003087731   -0.1200
20     C20     7.4990   -4.7016   -0.8611 C.ar     1 ZINC000003087731   -0.0500
21     S21     3.8896   -2.3942    0.3425 S.3      1 ZINC000003087731    0.2500
22     H22     1.1675    2.0410   -0.1170 H        1 ZINC000003087731    0.1000
23     H23    -0.6869    2.1435    0.1063 H        1 ZINC000003087731    0.1100
24     H24    -0.7867   -0.2302    0.3665 H        1 ZINC000003087731    0.1200
25     H25     1.3797   -1.2191   -0.7545 H        1 ZINC000003087731    0.0900
26     H26     2.2847    0.0982    0.0290 H        1 ZINC000003087731    0.0800
27     H27     0.8795   -1.3250    2.0231 H        1 ZINC000003087731    0.4100
28     H28     3.8844   -4.7636    4.3010 H        1 ZINC000003087731    0.4000
29     H29     5.2463   -5.1563    3.3988 H        1 ZINC000003087731    0.4200
30     H30     5.9313   -1.7712   -0.1715 H        1 ZINC000003087731    0.1400
31     H31     7.1638   -1.0984   -2.1903 H        1 ZINC000003087731    0.1400
32     H32     8.8121   -5.0233   -2.5126 H        1 ZINC000003087731    0.1400
33     H33     7.5931   -5.7118   -0.4908 H        1 ZINC000003087731    0.1400
@<TRIPOS>BOND
1     1     2     2
2     1     22    1
3     1     23    1
4     2     3     1
5     2     24    1
6     3     4     1
7     3     25    1
8     3     26    1
9     4     5     1
10    4     27    1
11    5     21    1
12    5     6     2
13    6     7     1
14    6     9     1
15    7     8     3
16    9     10    1
17    9     11    2
18    10    28    1
19    10    29    1
20    11    12    1
21    11    21    1
22    12    13    2
23    12    14    1
24    14    20    ar
25    14    15    ar
26    15    16    ar
27    15    30    1
28    16    17    ar
29    16    31    1
30    17    18    1
31    17    19    ar
32    19    20    ar
33    19    32    1
34    20    33    1
@<TRIPOS>SUBSTRUCTURE
1   ZINC000003087731 1     RESIDUE    1   A     ZIN   1


@<TRIPOS>MOLECULE
CC1=CC=C(C(C2=C(N)C(C#N)=C(NC(C)C)S2)=O)C=C1
38    39    1     0     0
SMALL
USER_CHARGES
@<TRIPOS>ATOM
1      C1     -1.0495    1.3950    0.0500 C.3      1 ZINC000065363051   -0.1200
2      C2     -0.7588   -0.0836    0.0313 C.ar     1 ZINC000065363051   -0.0600
3      C3     -1.2158   -0.8885    1.0598 C.ar     1 ZINC000065363051   -0.1200
4      C4     -0.9531   -2.2428    1.0487 C.ar     1 ZINC000065363051   -0.0900
5      C5     -0.2248   -2.8005   -0.0028 C.ar     1 ZINC000065363051   -0.1500
6      C6      0.0602   -4.2528   -0.0214 C.2      1 ZINC000065363051    0.4800
7      O7      0.1897   -4.8352   -1.0848 O.2      1 ZINC000065363051   -0.4900
8      C8      0.1818   -4.9616    1.1885 C.2      1 ZINC000065363051   -0.4500
9      C9      0.3152   -6.3262    1.2947 C.2      1 ZINC000065363051    0.3700
10     N10     0.3467   -7.1776    0.2016 N.pl3    1 ZINC000065363051   -0.8200
11     C11     0.4163   -6.7653    2.6128 C.2      1 ZINC000065363051   -0.2400
12     C12     0.5628   -8.1451    2.9668 C.1      1 ZINC000065363051    0.2800
13     N13     0.6790   -9.2397    3.2476 N.1      1 ZINC000065363051   -0.4300
14     C14     0.3630   -5.7514    3.5462 C.2      1 ZINC000065363051    0.1900
15     N15     0.4425   -5.9384    4.9061 N.pl3    1 ZINC000065363051   -0.6800
16     C16     0.3748   -4.7867    5.8090 C.3      1 ZINC000065363051    0.1300
17     C17    -0.1328   -5.2417    7.1787 C.3      1 ZINC000065363051   -0.1600
18     C18     1.7687   -4.1739    5.9594 C.3      1 ZINC000065363051   -0.1800
19     S19     0.1932   -4.2343    2.7871 S.3      1 ZINC000065363051    0.2600
20     C20     0.2332   -1.9834   -1.0371 C.ar     1 ZINC000065363051   -0.0600
21     C21    -0.0410   -0.6314   -1.0170 C.ar     1 ZINC000065363051   -0.1300
22     H22    -1.9947    1.5859   -0.4582 H        1 ZINC000065363051    0.0700
23     H23    -1.1158    1.7392    1.0820 H        1 ZINC000065363051    0.0700
24     H24    -0.2481    1.9292   -0.4604 H        1 ZINC000065363051    0.0700
25     H25    -1.7791   -0.4555    1.8733 H        1 ZINC000065363051    0.1300
26     H26    -1.3100   -2.8699    1.8522 H        1 ZINC000065363051    0.1300
27     H27     0.2727   -6.8175   -0.6960 H        1 ZINC000065363051    0.4200
28     H28     0.4428   -8.1337    0.3342 H        1 ZINC000065363051    0.4000
29     H29     0.5435   -6.8328    5.2675 H        1 ZINC000065363051    0.4100
30     H30    -0.3069   -4.0422    5.3978 H        1 ZINC000065363051    0.0900
31     H31     0.5490   -5.9862    7.5899 H        1 ZINC000065363051    0.0700
32     H32    -0.1832   -4.3849    7.8506 H        1 ZINC000065363051    0.0800
33     H33    -1.1258   -5.6783    7.0716 H        1 ZINC000065363051    0.0700
34     H34     2.1303   -3.8498    4.9836 H        1 ZINC000065363051    0.0700
35     H35     1.7183   -3.3171    6.6312 H        1 ZINC000065363051    0.0800
36     H36     2.4504   -4.9184    6.3706 H        1 ZINC000065363051    0.0700
37     H37     0.7974   -2.4090   -1.8537 H        1 ZINC000065363051    0.1300
38     H38     0.3129    0.0022   -1.8168 H        1 ZINC000065363051    0.1300
@<TRIPOS>BOND
1     1     2     1
2     1     22    1
3     1     23    1
4     1     24    1
5     2     21    ar
6     2     3     ar
7     3     4     ar
8     3     25    1
9     4     5     ar
10    4     26    1
11    5     6     1
12    5     20    ar
13    6     7     2
14    6     8     1
15    8     19    1
16    8     9     2
17    9     10    1
18    9     11    1
19    10    27    1
20    10    28    1
21    11    12    1
22    11    14    2
23    12    13    3
24    14    15    1
25    14    19    1
26    15    16    1
27    15    29    1
28    16    17    1
29    16    18    1
30    16    30    1
31    17    31    1
32    17    32    1
33    17    33    1
34    18    34    1
35    18    35    1
36    18    36    1
37    20    21    ar
38    20    37    1
39    21    38    1
@<TRIPOS>SUBSTRUCTURE
1   ZINC000065363051 1     RESIDUE    1   A     ZIN   1


@<TRIPOS>MOLECULE
CN(CC5)CCN5C1=CC=C(N2C=C(C3=CC=NC=C3OCC4CCNCC4)C=N2)C=C1
66    70    1     0     0
SMALL
USER_CHARGES
@<TRIPOS>ATOM
1      C1     -0.0178    1.4648    0.0101 C.3      1 ZINC000584904672   -0.0500
2      N2      0.0021   -0.0041    0.0020 N.4      1 ZINC000584904672   -0.3900
3      H3     -0.9446   -0.3531    0.0092 H        1 ZINC000584904672    0.4200
4      C4      0.7119   -0.4904    1.1925 C.3      1 ZINC000584904672    0.0000
5      C5      0.7166   -2.0206    1.1942 C.3      1 ZINC000584904672    0.0200
6      N6      1.3783   -2.5070   -0.0247 N.3      1 ZINC000584904672   -0.4900
7      C7      1.4497   -3.9031   -0.0329 C.ar     1 ZINC000584904672    0.0800
8      C8      0.9236   -4.6319    1.0262 C.ar     1 ZINC000584904672   -0.1400
9      C9      0.9938   -6.0103    1.0176 C.ar     1 ZINC000584904672   -0.0900
10     C10     1.5904   -6.6686   -0.0496 C.ar     1 ZINC000584904672    0.1500
11     N11     1.6616   -8.0695   -0.0580 N.pl3    1 ZINC000584904672   -0.3200
12     C12     2.2171   -8.8282   -1.0271 C.2      1 ZINC000584904672    0.0800
13     C13     2.0815  -10.1352   -0.6560 C.2      1 ZINC000584904672   -0.1800
14     C14     2.5488  -11.3170   -1.4215 C.ar     1 ZINC000584904672    0.0100
15     C15     2.2442  -11.4605   -2.7769 C.ar     1 ZINC000584904672   -0.1300
16     C16     2.6983  -12.5751   -3.4521 C.ar     1 ZINC000584904672    0.0800
17     N17     3.4110  -13.4987   -2.8364 N.ar     1 ZINC000584904672   -0.4500
18     C18     3.7230  -13.4056   -1.5577 C.ar     1 ZINC000584904672    0.0300
19     C19     3.3136  -12.3180   -0.8056 C.ar     1 ZINC000584904672    0.0800
20     O20     3.6383  -12.2272    0.5110 O.3      1 ZINC000584904672   -0.3000
21     C21     4.4101  -13.2953    1.0640 C.3      1 ZINC000584904672    0.0600
22     C22     4.6754  -13.0190    2.5453 C.3      1 ZINC000584904672   -0.1000
23     C23     3.3525  -13.0462    3.3162 C.3      1 ZINC000584904672   -0.1400
24     C24     3.6333  -12.8484    4.8074 C.3      1 ZINC000584904672   -0.0100
25     N25     4.5057  -13.9248    5.2917 N.4      1 ZINC000584904672   -0.5100
26     H26     4.6454  -13.8217    6.2856 H        1 ZINC000584904672    0.4300
27     H27     4.0730  -14.8169    5.1046 H        1 ZINC000584904672    0.4300
28     C28     5.8028  -13.8605    4.6076 C.3      1 ZINC000584904672    0.0000
29     C29     5.6055  -14.0973    3.1087 C.3      1 ZINC000584904672   -0.1400
30     C30     1.4172  -10.1572    0.5865 C.2      1 ZINC000584904672    0.0900
31     N31     1.1744   -8.9224    0.9398 N.2      1 ZINC000584904672   -0.2900
32     C32     2.1160   -5.9405   -1.1087 C.ar     1 ZINC000584904672   -0.1100
33     C33     2.0417   -4.5622   -1.1029 C.ar     1 ZINC000584904672   -0.1000
34     C34     0.6932   -2.0076   -1.2253 C.3      1 ZINC000584904672    0.0200
35     C35     0.6890   -0.4775   -1.2069 C.3      1 ZINC000584904672    0.0000
36     H36     1.0047    1.8421    0.0024 H        1 ZINC000584904672    0.1200
37     H37    -0.5450    1.8259   -0.8730 H        1 ZINC000584904672    0.1300
38     H38    -0.5280    1.8163    0.9069 H        1 ZINC000584904672    0.1300
39     H39     1.7384   -0.1239    1.1783 H        1 ZINC000584904672    0.1400
40     H40     0.2090   -0.1276    2.0888 H        1 ZINC000584904672    0.1400
41     H41     1.2562   -2.3817    2.0697 H        1 ZINC000584904672    0.1300
42     H42    -0.3095   -2.3874    1.2221 H        1 ZINC000584904672    0.0700
43     H43     0.4599   -4.1199    1.8565 H        1 ZINC000584904672    0.1400
44     H44     0.5851   -6.5770    1.8412 H        1 ZINC000584904672    0.1400
45     H45     2.6835   -8.4669   -1.9317 H        1 ZINC000584904672    0.1800
46     H46     1.6610  -10.7098   -3.2895 H        1 ZINC000584904672    0.1400
47     H47     2.4664  -12.6931   -4.5003 H        1 ZINC000584904672    0.1700
48     H48     4.3085  -14.1854   -1.0933 H        1 ZINC000584904672    0.1600
49     H49     3.8609  -14.2312    0.9616 H        1 ZINC000584904672    0.0700
50     H50     5.3589  -13.3708    0.5328 H        1 ZINC000584904672    0.0800
51     H51     5.1428  -12.0405    2.6555 H        1 ZINC000584904672    0.1000
52     H52     2.7060  -12.2449    2.9582 H        1 ZINC000584904672    0.1200
53     H53     2.8614  -14.0071    3.1626 H        1 ZINC000584904672    0.0900
54     H54     4.1241  -11.8871    4.9598 H        1 ZINC000584904672    0.1300
55     H55     2.6934  -12.8670    5.3592 H        1 ZINC000584904672    0.1400
56     H56     6.2474  -12.8777    4.7643 H        1 ZINC000584904672    0.1300
57     H57     6.4646  -14.6264    5.0119 H        1 ZINC000584904672    0.1400
58     H58     5.1611  -15.0800    2.9508 H        1 ZINC000584904672    0.0900
59     H59     6.5694  -14.0474    2.6024 H        1 ZINC000584904672    0.1200
60     H60     1.1573  -11.0407    1.1507 H        1 ZINC000584904672    0.1900
61     H61     2.5796   -6.4528   -1.9387 H        1 ZINC000584904672    0.1400
62     H62     2.4503   -3.9959   -1.9268 H        1 ZINC000584904672    0.1400
63     H63     1.2157   -2.3592   -2.1150 H        1 ZINC000584904672    0.1300
64     H64    -0.3333   -2.3742   -1.2373 H        1 ZINC000584904672    0.0700
65     H65     0.1689   -0.1049   -2.0894 H        1 ZINC000584904672    0.1400
66     H66     1.7157   -0.1113   -1.2087 H        1 ZINC000584904672    0.1400
@<TRIPOS>BOND
1     1     2     1
2     1     36    1
3     1     37    1
4     1     38    1
5     2     3     1
6     2     35    1
7     2     4     1
8     4     5     1
9     4     39    1
10    4     40    1
11    5     6     1
12    5     41    1
13    5     42    1
14    6     7     1
15    6     34    1
16    7     33    ar
17    7     8     ar
18    8     9     ar
19    8     43    1
20    9     10    ar
21    9     44    1
22    10    11    1
23    10    32    ar
24    11    31    1
25    11    12    1
26    12    13    2
27    12    45    1
28    13    14    1
29    13    30    1
30    14    19    ar
31    14    15    ar
32    15    16    ar
33    15    46    1
34    16    17    ar
35    16    47    1
36    17    18    ar
37    18    19    ar
38    18    48    1
39    19    20    1
40    20    21    1
41    21    22    1
42    21    49    1
43    21    50    1
44    22    29    1
45    22    23    1
46    22    51    1
47    23    24    1
48    23    52    1
49    23    53    1
50    24    25    1
51    24    54    1
52    24    55    1
53    25    26    1
54    25    27    1
55    25    28    1
56    28    29    1
57    28    56    1
58    28    57    1
59    29    58    1
60    29    59    1
61    30    31    2
62    30    60    1
63    32    33    ar
64    32    61    1
65    33    62    1
66    34    35    1
67    34    63    1
68    34    64    1
69    35    65    1
70    35    66    1
@<TRIPOS>SUBSTRUCTURE
1   ZINC000584904672 1     RESIDUE    1   A     ZIN   1


@<TRIPOS>MOLECULE
O=C(NC3=CC=C(CCNCC4)C4=C3)C(C(OC)=C2)=CC=C2C1=CNN=C1
50    53    1     0     0
SMALL
USER_CHARGES
@<TRIPOS>ATOM
1      C1     -0.0223    1.4247    0.0133 C.3      1 ZINC000205767906    0.0200
2      O2     -0.0018   -0.0041    0.0047 O.3      1 ZINC000205767906   -0.2800
3      C3      0.6287   -0.6173    1.0378 C.ar     1 ZINC000205767906    0.2100
4      C4      1.2108    0.1355    2.0421 C.ar     1 ZINC000205767906   -0.2200
5      C5      1.8566   -0.5007    3.0997 C.ar     1 ZINC000205767906    0.0900
6      C6      2.4811    0.3044    4.1770 C.2      1 ZINC000205767906   -0.2300
7      C7      3.1481   -0.1818    5.2651 C.2      1 ZINC000205767906    0.1000
8      N8      3.5583    0.8727    5.9962 N.pl3    1 ZINC000205767906   -0.4700
9      N9      3.1391    2.0428    5.3518 N.2      1 ZINC000205767906   -0.2900
10     C10     2.5001    1.7111    4.2618 C.2      1 ZINC000205767906    0.0700
11     C11     1.9168   -1.8950    3.1479 C.ar     1 ZINC000205767906   -0.1700
12     C12     1.3446   -2.6438    2.1604 C.ar     1 ZINC000205767906   -0.0400
13     C13     0.6885   -2.0186    1.0955 C.ar     1 ZINC000205767906   -0.2000
14     C14     0.0716   -2.8283    0.0308 C.2      1 ZINC000205767906    0.5700
15     O15    -0.4988   -2.2830   -0.8948 O.2      1 ZINC000205767906   -0.5000
16     N16     0.1392   -4.1734    0.0823 N.am     1 ZINC000205767906   -0.6800
17     C17    -0.5285   -4.9442   -0.8748 C.ar     1 ZINC000205767906    0.1700
18     C18    -1.0989   -6.1581   -0.5149 C.ar     1 ZINC000205767906   -0.1400
19     C19    -1.7578   -6.9201   -1.4615 C.ar     1 ZINC000205767906   -0.0800
20     C20    -1.8455   -6.4672   -2.7652 C.ar     1 ZINC000205767906   -0.1300
21     C21    -2.5663   -7.3016   -3.8049 C.3      1 ZINC000205767906   -0.0900
22     C22    -3.8565   -6.5726   -4.1929 C.3      1 ZINC000205767906   -0.0100
23     N23    -3.6091   -5.5951   -5.2376 N.4      1 ZINC000205767906   -0.5000
24     H24    -3.1099   -6.0518   -5.9861 H        1 ZINC000205767906    0.4200
25     H25    -4.4993   -5.2844   -5.5970 H        1 ZINC000205767906    0.4300
26     C26    -2.8518   -4.4240   -4.8338 C.3      1 ZINC000205767906   -0.0100
27     C27    -1.3887   -4.7833   -4.5567 C.3      1 ZINC000205767906   -0.1000
28     C28    -1.2831   -5.2658   -3.1240 C.ar     1 ZINC000205767906   -0.0900
29     C29    -0.6268   -4.4934   -2.1862 C.ar     1 ZINC000205767906   -0.1100
30     H30     0.9999    1.8028   -0.0015 H        1 ZINC000205767906    0.0600
31     H31    -0.5560    1.7857   -0.8658 H        1 ZINC000205767906    0.1000
32     H32    -0.5264    1.7754    0.9139 H        1 ZINC000205767906    0.0600
33     H33     1.1650    1.2139    2.0060 H        1 ZINC000205767906    0.1400
34     H34     3.3158   -1.2231    5.4977 H        1 ZINC000205767906    0.1900
35     H35     4.0579    0.8289    6.8265 H        1 ZINC000205767906    0.4500
36     H36     2.0575    2.3952    3.5529 H        1 ZINC000205767906    0.1900
37     H37     2.4187   -2.3831    3.9702 H        1 ZINC000205767906    0.1300
38     H38     1.3952   -3.7217    2.2038 H        1 ZINC000205767906    0.1300
39     H39     0.6509   -4.6068    0.7831 H        1 ZINC000205767906    0.4100
40     H40    -1.0275   -6.5070    0.5047 H        1 ZINC000205767906    0.1300
41     H41    -2.2015   -7.8649   -1.1844 H        1 ZINC000205767906    0.1300
42     H42    -1.9330   -7.4213   -4.6839 H        1 ZINC000205767906    0.0900
43     H43    -2.8075   -8.2797   -3.3887 H        1 ZINC000205767906    0.1200
44     H44    -4.5854   -7.3004   -4.5493 H        1 ZINC000205767906    0.1400
45     H45    -4.2583   -6.0651   -3.3159 H        1 ZINC000205767906    0.1300
46     H46    -2.8930   -3.6796   -5.6290 H        1 ZINC000205767906    0.1400
47     H47    -3.2948   -4.0056   -3.9300 H        1 ZINC000205767906    0.1300
48     H48    -1.0693   -5.5741   -5.2355 H        1 ZINC000205767906    0.1000
49     H49    -0.7611   -3.9030   -4.6955 H        1 ZINC000205767906    0.1200
50     H50    -0.1895   -3.5477   -2.4704 H        1 ZINC000205767906    0.1500
@<TRIPOS>BOND
1     1     2     1
2     1     30    1
3     1     31    1
4     1     32    1
5     2     3     1
6     3     13    ar
7     3     4     ar
8     4     5     ar
9     4     33    1
10    5     6     1
11    5     11    ar
12    6     10    1
13    6     7     2
14    7     8     1
15    7     34    1
16    8     9     1
17    8     35    1
18    9     10    2
19    10    36    1
20    11    12    ar
21    11    37    1
22    12    13    ar
23    12    38    1
24    13    14    1
25    14    15    2
26    14    16    am
27    16    17    1
28    16    39    1
29    17    29    ar
30    17    18    ar
31    18    19    ar
32    18    40    1
33    19    20    ar
34    19    41    1
35    20    28    ar
36    20    21    1
37    21    22    1
38    21    42    1
39    21    43    1
40    22    23    1
41    22    44    1
42    22    45    1
43    23    24    1
44    23    25    1
45    23    26    1
46    26    27    1
47    26    46    1
48    26    47    1
49    27    28    1
50    27    48    1
51    27    49    1
52    28    29    ar
53    29    50    1
@<TRIPOS>SUBSTRUCTURE
1   ZINC000205767906 1     RESIDUE    1   A     ZIN   1


@<TRIPOS>MOLECULE
OC1=C(OC)C=C(/C=C2\C(N(C3=CC=CC=C3)C(N2)=O)=O)C=C1OC
41    43    1     0     0
SMALL
USER_CHARGES
@<TRIPOS>ATOM
1      C1     -0.5700   -3.6556    4.2836 C.3      1 ZINC000000580677    0.0200
2      O2     -0.4427   -3.3778    2.8876 O.3      1 ZINC000000580677   -0.3000
3      C3      0.3395   -2.3220    2.5370 C.ar     1 ZINC000000580677    0.1400
4      C4      0.9721   -1.5774    3.5142 C.ar     1 ZINC000000580677   -0.1700
5      C5      1.7775   -0.4909    3.1522 C.ar     1 ZINC000000580677   -0.0100
6      C6      2.4520    0.3027    4.1876 C.2      1 ZINC000000580677   -0.0200
7      C7      2.9841   -0.3116    5.2742 C.2      1 ZINC000000580677    0.0200
8      N8      3.5078    0.2953    6.4242 N.am     1 ZINC000000580677   -0.6600
9      C9      3.9269   -0.6811    7.2484 C.2      1 ZINC000000580677    0.7000
10     O10     4.4343   -0.4924    8.3373 O.2      1 ZINC000000580677   -0.5100
11     N11     3.7107   -1.8912    6.7105 N.am     1 ZINC000000580677   -0.5200
12     C12     4.0349   -3.1123    7.3177 C.ar     1 ZINC000000580677    0.1300
13     C13     3.7687   -4.3072    6.6628 C.ar     1 ZINC000000580677   -0.1400
14     C14     4.0894   -5.5088    7.2637 C.ar     1 ZINC000000580677   -0.1000
15     C15     4.6749   -5.5225    8.5163 C.ar     1 ZINC000000580677   -0.1200
16     C16     4.9408   -4.3340    9.1713 C.ar     1 ZINC000000580677   -0.1000
17     C17     4.6281   -3.1291    8.5728 C.ar     1 ZINC000000580677   -0.1400
18     C18     3.1294   -1.7574    5.5012 C.2      1 ZINC000000580677    0.5500
19     O19     2.7990   -2.6528    4.7459 O.2      1 ZINC000000580677   -0.4400
20     C20     1.9385   -0.1633    1.8007 C.ar     1 ZINC000000580677   -0.2000
21     C21     1.3025   -0.9128    0.8295 C.ar     1 ZINC000000580677    0.1300
22     O22     1.4583   -0.5954   -0.4837 O.3      1 ZINC000000580677   -0.3000
23     C23     2.2931    0.5243   -0.7859 C.3      1 ZINC000000580677    0.0200
24     C24     0.5065   -1.9961    1.1934 C.ar     1 ZINC000000580677    0.0600
25     O25    -0.1172   -2.7312    0.2350 O.3      1 ZINC000000580677   -0.4700
26     H26    -1.0015   -2.7911    4.7882 H        1 ZINC000000580677    0.0500
27     H27    -1.2191   -4.5199    4.4243 H        1 ZINC000000580677    0.1000
28     H28     0.4135   -3.8677    4.7030 H        1 ZINC000000580677    0.0600
29     H29     0.8451   -1.8330    4.5558 H        1 ZINC000000580677    0.1300
30     H30     2.5245    1.3752    4.0841 H        1 ZINC000000580677    0.1600
31     H31     3.5588    1.2488    6.5949 H        1 ZINC000000580677    0.4400
32     H32     3.3111   -4.2971    5.6846 H        1 ZINC000000580677    0.1500
33     H33     3.8822   -6.4386    6.7548 H        1 ZINC000000580677    0.1300
34     H34     4.9247   -6.4633    8.9842 H        1 ZINC000000580677    0.1300
35     H35     5.3978   -4.3479   10.1497 H        1 ZINC000000580677    0.1300
36     H36     4.8363   -2.2012    9.0847 H        1 ZINC000000580677    0.1600
37     H37     2.5587    0.6742    1.5175 H        1 ZINC000000580677    0.1400
38     H38     1.8857    1.4188   -0.3147 H        1 ZINC000000580677    0.0600
39     H39     3.2987    0.3404   -0.4077 H        1 ZINC000000580677    0.0600
40     H40     2.3316    0.6679   -1.8657 H        1 ZINC000000580677    0.1000
41     H41     0.4052   -3.4768   -0.0910 H        1 ZINC000000580677    0.3900
@<TRIPOS>BOND
1     1     2     1
2     1     26    1
3     1     27    1
4     1     28    1
5     2     3     1
6     3     24    ar
7     3     4     ar
8     4     5     ar
9     4     29    1
10    5     6     1
11    5     20    ar
12    6     7     2
13    6     30    1
14    7     18    1
15    7     8     1
16    8     9     am
17    8     31    1
18    9     10    2
19    9     11    am
20    11    12    1
21    11    18    am
22    12    17    ar
23    12    13    ar
24    13    14    ar
25    13    32    1
26    14    15    ar
27    14    33    1
28    15    16    ar
29    15    34    1
30    16    17    ar
31    16    35    1
32    17    36    1
33    18    19    2
34    20    21    ar
35    20    37    1
36    21    22    1
37    21    24    ar
38    22    23    1
39    23    38    1
40    23    39    1
41    23    40    1
42    24    25    1
43    25    41    1
@<TRIPOS>SUBSTRUCTURE
1   ZINC000000580677 1     RESIDUE    1   A     ZIN   1


@<TRIPOS>MOLECULE
COC1=C(C=C(C=C1)C2C3COC(C3CO2)C4=CC(=C(C=C4)O)OC)OC
  51   54    0    0    0
SMALL
USER_CHARGES
NO_NAME
@<TRIPOS>ATOM
    1 C1       -0.0173     1.4248     0.0099 C.3    1 <0>       0.0300
    2 O2        0.0021    -0.0041     0.0020 O.3    1 <0>      -0.3100
    3 C3        0.6062    -0.6075    -1.0564 C.ar   1 <0>       0.1000
    4 C4        1.1727     0.1587    -2.0618 C.ar   1 <0>      -0.1700
    5 C5        1.7870    -0.4565    -3.1372 C.ar   1 <0>      -0.0900
    6 C6        1.8372    -1.8356    -3.2121 C.ar   1 <0>      -0.0900
    7 C7        2.5075    -2.5009    -4.3865 C.3    1 <0>       0.1500
    8 H8        2.0928    -3.4964    -4.5444 H      1 <0>       0.0900
    9 O9        2.3481    -1.6900    -5.5863 O.3    1 <0>      -0.3700
   10 C10       3.6652    -1.4486    -6.1727 C.3    1 <0>       0.0700
   11 C11       4.4600    -2.6270    -5.6789 C.3    1 <0>      -0.1700
   12 H12       4.1060    -3.5425    -6.1528 H      1 <0>       0.1000
   13 C13       3.9875    -2.5825    -4.1638 C.3    1 <0>      -0.1700
   14 H14       4.3411    -1.6677    -3.6883 H      1 <0>       0.1000
   15 C15       4.7826    -3.7617    -3.6720 C.3    1 <0>       0.0700
   16 O16       6.0996    -3.5191    -4.2582 O.3    1 <0>      -0.3700
   17 C17       5.9392    -2.7044    -5.4500 C.3    1 <0>       0.1500
   18 H18       6.3532    -1.7093    -5.2870 H      1 <0>       0.0900
   19 C19       6.6092    -3.3627    -6.6284 C.ar   1 <0>      -0.0600
   20 C20       6.5411    -4.7345    -6.7824 C.ar   1 <0>      -0.1200
   21 C21       7.1546    -5.3435    -7.8618 C.ar   1 <0>      -0.1100
   22 C22       7.8390    -4.5783    -8.7919 C.ar   1 <0>       0.0800
   23 O23       8.4425    -5.1755    -9.8542 O.3    1 <0>      -0.4900
   24 C24       7.9071    -3.1966    -8.6370 C.ar   1 <0>       0.1000
   25 O25       8.5774    -2.4411    -9.5477 O.3    1 <0>      -0.3100
   26 C26       8.6058    -1.0299    -9.3247 C.3    1 <0>       0.0200
   27 C27       7.2860    -2.5924    -7.5563 C.ar   1 <0>      -0.1800
   28 C28       1.2740    -2.6064    -2.2116 C.ar   1 <0>      -0.1600
   29 C29       0.6617    -1.9965    -1.1290 C.ar   1 <0>       0.1000
   30 O30       0.1074    -2.7530    -0.1443 O.3    1 <0>      -0.3100
   31 C31       0.1928    -4.1720    -0.2904 C.3    1 <0>       0.0300
   32 H32       1.0053     1.8021     0.0021 H      1 <0>       0.0600
   33 H33      -0.5445     1.7859    -0.8732 H      1 <0>       0.0600
   34 H34      -0.5275     1.7763     0.9067 H      1 <0>       0.1000
   35 H35       1.1343     1.2366    -2.0060 H      1 <0>       0.1400
   36 H36       2.2283     0.1421    -3.9204 H      1 <0>       0.1300
   37 H37       3.6102    -1.4472    -7.2613 H      1 <0>       0.1000
   38 H38       4.0880    -0.5141    -5.8039 H      1 <0>       0.0700
   39 H39       4.8377    -3.7649    -2.5834 H      1 <0>       0.1000
   40 H40       4.3598    -4.6956    -4.0423 H      1 <0>       0.0700
   41 H41       6.0079    -5.3323    -6.0580 H      1 <0>       0.1300
   42 H42       7.1006    -6.4157    -7.9795 H      1 <0>       0.1400
   43 H43       7.8756    -5.2585   -10.6331 H      1 <0>       0.3900
   44 H44       7.5869    -0.6428    -9.3161 H      1 <0>       0.0600
   45 H45       9.0812    -0.8230    -8.3659 H      1 <0>       0.0600
   46 H46       9.1711    -0.5473   -10.1220 H      1 <0>       0.1000
   47 H47       7.3373    -1.5206    -7.4338 H      1 <0>       0.1300
   48 H48       1.3146    -3.6839    -2.2726 H      1 <0>       0.1400
   49 H49       1.2403    -4.4703    -0.3345 H      1 <0>       0.0600
   50 H50      -0.2869    -4.6545     0.5611 H      1 <0>       0.1000
   51 H51      -0.3098    -4.4735    -1.2094 H      1 <0>       0.0600
@<TRIPOS>BOND
   1    1    2 1
   2    1   32 1
   3    1   33 1
   4    1   34 1
   5    2    3 1
   6    3   29 ar
   7    3    4 ar
   8    4    5 ar
   9    4   35 1
  10    5    6 ar
  11    5   36 1
  12    6    7 1
  13    6   28 ar
  14    7    8 1
  15    7   13 1
  16    7    9 1
  17    9   10 1
  18   10   11 1
  19   10   37 1
  20   10   38 1
  21   11   12 1
  22   11   17 1
  23   11   13 1
  24   13   14 1
  25   13   15 1
  26   15   16 1
  27   15   39 1
  28   15   40 1
  29   16   17 1
  30   17   18 1
  31   17   19 1
  32   19   27 ar
  33   19   20 ar
  34   20   21 ar
  35   20   41 1
  36   21   22 ar
  37   21   42 1
  38   22   23 1
  39   22   24 ar
  40   23   43 1
  41   24   25 1
  42   24   27 ar
  43   25   26 1
  44   26   44 1
  45   26   45 1
  46   26   46 1
  47   27   47 1
  48   28   29 ar
  49   28   48 1
  50   29   30 1
  51   30   31 1
  52   31   49 1
  53   31   50 1
  54   31   51 1


@<TRIPOS>MOLECULE
COC1=C(C=CC(=C1)C2=CNN=C2)C(=O)NC3=CC4=C(CCNCC4)C=C3
50    53    1     0     0
SMALL
USER_CHARGES
@<TRIPOS>ATOM
1      C1     -0.0223    1.4247    0.0133 C.3      1 ZINC000205767906    0.0200
2      O2     -0.0018   -0.0041    0.0047 O.3      1 ZINC000205767906   -0.2800
3      C3      0.6287   -0.6173    1.0378 C.ar     1 ZINC000205767906    0.2100
4      C4      1.2108    0.1355    2.0421 C.ar     1 ZINC000205767906   -0.2200
5      C5      1.8566   -0.5007    3.0997 C.ar     1 ZINC000205767906    0.0900
6      C6      2.4811    0.3044    4.1770 C.2      1 ZINC000205767906   -0.2300
7      C7      3.1481   -0.1818    5.2651 C.2      1 ZINC000205767906    0.1000
8      N8      3.5583    0.8727    5.9962 N.pl3    1 ZINC000205767906   -0.4700
9      N9      3.1391    2.0428    5.3518 N.2      1 ZINC000205767906   -0.2900
10     C10     2.5001    1.7111    4.2618 C.2      1 ZINC000205767906    0.0700
11     C11     1.9168   -1.8950    3.1479 C.ar     1 ZINC000205767906   -0.1700
12     C12     1.3446   -2.6438    2.1604 C.ar     1 ZINC000205767906   -0.0400
13     C13     0.6885   -2.0186    1.0955 C.ar     1 ZINC000205767906   -0.2000
14     C14     0.0716   -2.8283    0.0308 C.2      1 ZINC000205767906    0.5700
15     O15    -0.4988   -2.2830   -0.8948 O.2      1 ZINC000205767906   -0.5000
16     N16     0.1392   -4.1734    0.0823 N.am     1 ZINC000205767906   -0.6800
17     C17    -0.5285   -4.9442   -0.8748 C.ar     1 ZINC000205767906    0.1700
18     C18    -1.0989   -6.1581   -0.5149 C.ar     1 ZINC000205767906   -0.1400
19     C19    -1.7578   -6.9201   -1.4615 C.ar     1 ZINC000205767906   -0.0800
20     C20    -1.8455   -6.4672   -2.7652 C.ar     1 ZINC000205767906   -0.1300
21     C21    -2.5663   -7.3016   -3.8049 C.3      1 ZINC000205767906   -0.0900
22     C22    -3.8565   -6.5726   -4.1929 C.3      1 ZINC000205767906   -0.0100
23     N23    -3.6091   -5.5951   -5.2376 N.4      1 ZINC000205767906   -0.5000
24     H24    -3.1099   -6.0518   -5.9861 H        1 ZINC000205767906    0.4200
25     H25    -4.4993   -5.2844   -5.5970 H        1 ZINC000205767906    0.4300
26     C26    -2.8518   -4.4240   -4.8338 C.3      1 ZINC000205767906   -0.0100
27     C27    -1.3887   -4.7833   -4.5567 C.3      1 ZINC000205767906   -0.1000
28     C28    -1.2831   -5.2658   -3.1240 C.ar     1 ZINC000205767906   -0.0900
29     C29    -0.6268   -4.4934   -2.1862 C.ar     1 ZINC000205767906   -0.1100
30     H30     0.9999    1.8028   -0.0015 H        1 ZINC000205767906    0.0600
31     H31    -0.5560    1.7857   -0.8658 H        1 ZINC000205767906    0.1000
32     H32    -0.5264    1.7754    0.9139 H        1 ZINC000205767906    0.0600
33     H33     1.1650    1.2139    2.0060 H        1 ZINC000205767906    0.1400
34     H34     3.3158   -1.2231    5.4977 H        1 ZINC000205767906    0.1900
35     H35     4.0579    0.8289    6.8265 H        1 ZINC000205767906    0.4500
36     H36     2.0575    2.3952    3.5529 H        1 ZINC000205767906    0.1900
37     H37     2.4187   -2.3831    3.9702 H        1 ZINC000205767906    0.1300
38     H38     1.3952   -3.7217    2.2038 H        1 ZINC000205767906    0.1300
39     H39     0.6509   -4.6068    0.7831 H        1 ZINC000205767906    0.4100
40     H40    -1.0275   -6.5070    0.5047 H        1 ZINC000205767906    0.1300
41     H41    -2.2015   -7.8649   -1.1844 H        1 ZINC000205767906    0.1300
42     H42    -1.9330   -7.4213   -4.6839 H        1 ZINC000205767906    0.0900
43     H43    -2.8075   -8.2797   -3.3887 H        1 ZINC000205767906    0.1200
44     H44    -4.5854   -7.3004   -4.5493 H        1 ZINC000205767906    0.1400
45     H45    -4.2583   -6.0651   -3.3159 H        1 ZINC000205767906    0.1300
46     H46    -2.8930   -3.6796   -5.6290 H        1 ZINC000205767906    0.1400
47     H47    -3.2948   -4.0056   -3.9300 H        1 ZINC000205767906    0.1300
48     H48    -1.0693   -5.5741   -5.2355 H        1 ZINC000205767906    0.1000
49     H49    -0.7611   -3.9030   -4.6955 H        1 ZINC000205767906    0.1200
50     H50    -0.1895   -3.5477   -2.4704 H        1 ZINC000205767906    0.1500
@<TRIPOS>BOND
1     1     2     1
2     1     30    1
3     1     31    1
4     1     32    1
5     2     3     1
6     3     13    ar
7     3     4     ar
8     4     5     ar
9     4     33    1
10    5     6     1
11    5     11    ar
12    6     10    1
13    6     7     2
14    7     8     1
15    7     34    1
16    8     9     1
17    8     35    1
18    9     10    2
19    10    36    1
20    11    12    ar
21    11    37    1
22    12    13    ar
23    12    38    1
24    13    14    1
25    14    15    2
26    14    16    am
27    16    17    1
28    16    39    1
29    17    29    ar
30    17    18    ar
31    18    19    ar
32    18    40    1
33    19    20    ar
34    19    41    1
35    20    28    ar
36    20    21    1
37    21    22    1
38    21    42    1
39    21    43    1
40    22    23    1
41    22    44    1
42    22    45    1
43    23    24    1
44    23    25    1
45    23    26    1
46    26    27    1
47    26    46    1
48    26    47    1
49    27    28    1
50    27    48    1
51    27    49    1
52    28    29    ar
53    29    50    1
@<TRIPOS>SUBSTRUCTURE
1   ZINC000205767906 1     RESIDUE    1   A     ZIN   1


@<TRIPOS>MOLECULE
ClC1=CC(Cl)=C(/C=C/C2=NC(C=CC(N)=C3)=C3C(NC(C)CCCN(CC)CC)=N2)C(Cl)=C1
64    66    1     0     0
SMALL
USER_CHARGES
@<TRIPOS>ATOM
1      C1      1.6069    1.6084    1.6632 C.3      1 ZINC000005946936   -0.1900
2      C2      1.9054    0.1267    1.4260 C.3      1 ZINC000005946936   -0.0100
3      N3      0.6425   -0.6142    1.3063 N.4      1 ZINC000005946936   -0.3900
4      H4      0.0740   -0.4439    2.1223 H        1 ZINC000005946936    0.4200
5      C5     -0.0765   -0.1657    0.1063 C.3      1 ZINC000005946936   -0.0200
6      C6     -1.4603   -0.8172    0.0676 C.3      1 ZINC000005946936   -0.1900
7      C7      0.9264   -2.0515    1.1985 C.3      1 ZINC000005946936   -0.0100
8      C8      1.5574   -2.5459    2.5016 C.3      1 ZINC000005946936   -0.1500
9      C9      1.7480   -4.0624    2.4328 C.3      1 ZINC000005946936   -0.1300
10     C10     2.3791   -4.5568    3.7359 C.3      1 ZINC000005946936    0.1500
11     H11     1.7703   -4.2331    4.5801 H        1 ZINC000005946936    0.1000
12     C12     2.4553   -6.0848    3.7181 C.3      1 ZINC000005946936   -0.1700
13     N13     3.7288   -4.0020    3.8661 N.pl3    1 ZINC000005946936   -0.7000
14     C14     4.2972   -3.8563    5.1148 C.ar     1 ZINC000005946936    0.4600
15     C15     5.6003   -3.3157    5.2612 C.ar     1 ZINC000005946936   -0.1400
16     C16     6.3594   -2.9106    4.1595 C.ar     1 ZINC000005946936   -0.1800
17     C17     7.6225   -2.3907    4.3612 C.ar     1 ZINC000005946936    0.2100
18     N18     8.3870   -1.9836    3.2646 N.pl3    1 ZINC000005946936   -0.8700
19     C19     8.1436   -2.2674    5.6531 C.ar     1 ZINC000005946936   -0.1300
20     C20     7.4208   -2.6560    6.7396 C.ar     1 ZINC000005946936   -0.0600
21     C21     6.1342   -3.1886    6.5679 C.ar     1 ZINC000005946936    0.1400
22     N22     5.3901   -3.5823    7.6100 N.ar     1 ZINC000005946936   -0.5200
23     C23     4.1794   -4.0809    7.4187 C.ar     1 ZINC000005946936    0.3800
24     C24     3.3957   -4.5012    8.5908 C.2      1 ZINC000005946936   -0.0700
25     C25     3.9127   -4.3751    9.8255 C.2      1 ZINC000005946936   -0.0700
26     C26     3.1284   -4.7958   10.9986 C.ar     1 ZINC000005946936   -0.0400
27     C27     1.8071   -4.3625   11.1530 C.ar     1 ZINC000005946936   -0.0100
28     Cl28    1.0860   -3.3268    9.9609 Cl       1 ZINC000005946936   -0.0400
29     C29     1.0784   -4.7610   12.2551 C.ar     1 ZINC000005946936   -0.1000
30     C30     1.6519   -5.5876   13.2069 C.ar     1 ZINC000005946936   -0.0100
31     Cl31    0.7272   -6.0835   14.5900 Cl       1 ZINC000005946936   -0.0400
32     C32     2.9591   -6.0210   13.0608 C.ar     1 ZINC000005946936   -0.0900
33     C33     3.6988   -5.6353   11.9614 C.ar     1 ZINC000005946936    0.0000
34     Cl34    5.3371   -6.1803   11.7800 Cl       1 ZINC000005946936   -0.0300
35     N35     3.6379   -4.2123    6.2053 N.ar     1 ZINC000005946936   -0.5700
36     H36     1.0313    1.7206    2.5820 H        1 ZINC000005946936    0.0800
37     H37     2.5439    2.1581    1.7520 H        1 ZINC000005946936    0.1100
38     H38     1.0327    2.0022    0.8245 H        1 ZINC000005946936    0.0800
39     H39     2.4809    0.0145    0.5071 H        1 ZINC000005946936    0.1300
40     H40     2.4795   -0.2671    2.2647 H        1 ZINC000005946936    0.1300
41     H41    -0.1860    0.9185    0.1324 H        1 ZINC000005946936    0.1300
42     H42     0.4854   -0.4529   -0.7825 H        1 ZINC000005946936    0.1300
43     H43    -1.3517   -1.9017    0.0819 H        1 ZINC000005946936    0.0800
44     H44    -2.0365   -0.4983    0.9361 H        1 ZINC000005946936    0.0800
45     H45    -1.9784   -0.5159   -0.8428 H        1 ZINC000005946936    0.1100
46     H46    -0.0022   -2.5925    1.0163 H        1 ZINC000005946936    0.1300
47     H47     1.6159   -2.2247    0.3722 H        1 ZINC000005946936    0.1300
48     H48     2.5250   -2.0641    2.6424 H        1 ZINC000005946936    0.0900
49     H49     0.9037   -2.2995    3.3383 H        1 ZINC000005946936    0.0900
50     H50     0.7805   -4.5442    2.2920 H        1 ZINC000005946936    0.0900
51     H51     2.4018   -4.3088    1.5961 H        1 ZINC000005946936    0.0800
52     H52     3.0641   -6.4084    2.8739 H        1 ZINC000005946936    0.0600
53     H53     2.9049   -6.4370    4.6465 H        1 ZINC000005946936    0.0700
54     H54     1.4511   -6.4975    3.6212 H        1 ZINC000005946936    0.0700
55     H55     4.2227   -3.7372    3.0744 H        1 ZINC000005946936    0.4100
56     H56     5.9617   -3.0036    3.1597 H        1 ZINC000005946936    0.1200
57     H57     8.0297   -2.0669    2.3666 H        1 ZINC000005946936    0.4000
58     H58     9.2749   -1.6178    3.4013 H        1 ZINC000005946936    0.4000
59     H59     9.1336   -1.8584    5.7909 H        1 ZINC000005946936    0.1400
60     H60     7.8370   -2.5549    7.7310 H        1 ZINC000005946936    0.1400
61     H61     2.4051   -4.9110    8.4594 H        1 ZINC000005946936    0.1400
62     H62     4.9032   -3.9654    9.9569 H        1 ZINC000005946936    0.1500
63     H63     0.0584   -4.4271   12.3759 H        1 ZINC000005946936    0.1500
64     H64     3.3994   -6.6658   13.8070 H        1 ZINC000005946936    0.1600
@<TRIPOS>BOND
1     1     2     1
2     1     36    1
3     1     37    1
4     1     38    1
5     2     3     1
6     2     39    1
7     2     40    1
8     3     4     1
9     3     5     1
10    3     7     1
11    5     6     1
12    5     41    1
13    5     42    1
14    6     43    1
15    6     44    1
16    6     45    1
17    7     8     1
18    7     46    1
19    7     47    1
20    8     9     1
21    8     48    1
22    8     49    1
23    9     10    1
24    9     50    1
25    9     51    1
26    10    11    1
27    10    12    1
28    10    13    1
29    12    52    1
30    12    53    1
31    12    54    1
32    13    14    1
33    13    55    1
34    14    35    ar
35    14    15    ar
36    15    21    ar
37    15    16    ar
38    16    17    ar
39    16    56    1
40    17    18    1
41    17    19    ar
42    18    57    1
43    18    58    1
44    19    20    ar
45    19    59    1
46    20    21    ar
47    20    60    1
48    21    22    ar
49    22    23    ar
50    23    24    1
51    23    35    ar
52    24    25    2
53    24    61    1
54    25    26    1
55    25    62    1
56    26    33    ar
57    26    27    ar
58    27    28    1
59    27    29    ar
60    29    30    ar
61    29    63    1
62    30    31    1
63    30    32    ar
64    32    33    ar
65    32    64    1
66    33    34    1
@<TRIPOS>SUBSTRUCTURE
1   ZINC000005946936 1     RESIDUE    1   A     ZIN   1


@<TRIPOS>MOLECULE
FC1=CC=C(C2=NC(S(=O)(C3=CC=CC=C3)=O)=C(S(CC)(=O)=O)O2)C=C1
  40   42    0    0    0
SMALL
USER_CHARGES
NO_NAME
@<TRIPOS>ATOM
    1 C1       -0.3231     1.0593     0.7369 C.3    1 <0>      -0.1500
    2 C2       -0.1489    -0.4294     0.4294 C.3    1 <0>      -0.5900
    3 S3        0.7096    -1.2354     1.8092 S.o2   1 <0>       2.4900
    4 O4        2.0566    -0.7896     1.8871 O.2    1 <0>      -0.8800
    5 O5       -0.1198    -1.2664     2.9627 O.2    1 <0>      -0.9100
    6 C6        0.8381    -2.9235     1.3211 C.2    1 <0>      -0.4800
    7 C7        1.7648    -3.4476     0.4988 C.2    1 <0>      -0.4400
    8 S8        3.0728    -2.5660    -0.2865 S.o2   1 <0>       2.5900
    9 O9        3.3938    -3.2908    -1.4658 O.2    1 <0>      -0.9000
   10 O10       2.6862    -1.1986    -0.2956 O.2    1 <0>      -0.9100
   11 C11       4.4820    -2.6776     0.7652 C.ar   1 <0>      -0.6600
   12 C12       4.7738    -1.6490     1.6414 C.ar   1 <0>       0.0000
   13 C13       5.8794    -1.7365     2.4666 C.ar   1 <0>      -0.1500
   14 C14       6.6930    -2.8529     2.4158 C.ar   1 <0>      -0.0500
   15 C15       6.4008    -3.8819     1.5403 C.ar   1 <0>      -0.1500
   16 C16       5.2927    -3.7963     0.7182 C.ar   1 <0>      -0.0200
   17 N17       1.5160    -4.7611     0.3828 N.2    1 <0>      -0.4100
   18 C18       0.4641    -5.0546     1.1106 C.2    1 <0>       0.2800
   19 C19      -0.1376    -6.3967     1.2558 C.ar   1 <0>      -0.0600
   20 C20      -1.2646    -6.5757     2.0600 C.ar   1 <0>      -0.0500
   21 C21      -1.8223    -7.8300     2.1916 C.ar   1 <0>      -0.1500
   22 C22      -1.2659    -8.9118     1.5274 C.ar   1 <0>       0.1400
   23 F23      -1.8162   -10.1385     1.6598 F      1 <0>      -0.1300
   24 C24      -0.1473    -8.7395     0.7274 C.ar   1 <0>      -0.1600
   25 C25       0.4155    -7.4887     0.5849 C.ar   1 <0>      -0.0300
   26 O26       0.0297    -3.9308     1.7069 O.3    1 <0>      -0.1200
   27 H27       0.6557     1.5189     0.8741 H      1 <0>       0.0800
   28 H28      -0.8390     1.5436    -0.0922 H      1 <0>       0.0900
   29 H29      -0.9101     1.1758     1.6479 H      1 <0>       0.0700
   30 H30      -1.1277    -0.8890     0.2923 H      1 <0>       0.1400
   31 H31       0.4381    -0.5459    -0.4816 H      1 <0>       0.1600
   32 H32       4.1381    -0.7768     1.6811 H      1 <0>       0.1700
   33 H33       6.1077    -0.9326     3.1506 H      1 <0>       0.1400
   34 H34       7.5572    -2.9210     3.0600 H      1 <0>       0.1300
   35 H35       7.0366    -4.7540     1.5004 H      1 <0>       0.1400
   36 H36       5.0644    -4.6003     0.0342 H      1 <0>       0.1400
   37 H37      -1.6987    -5.7335     2.5783 H      1 <0>       0.1500
   38 H38      -2.6940    -7.9698     2.8138 H      1 <0>       0.1500
   39 H39       0.2821    -9.5857     0.2117 H      1 <0>       0.1500
   40 H40       1.2870    -7.3555    -0.0390 H      1 <0>       0.1500
@<TRIPOS>BOND
   1    1    2 1
   2    1   27 1
   3    1   28 1
   4    1   29 1
   5    2    3 1
   6    2   30 1
   7    2   31 1
   8    3    4 2
   9    3    5 2
  10    3    6 1
  11    6   26 1
  12    6    7 2
  13    7    8 1
  14    7   17 1
  15    8    9 2
  16    8   10 2
  17    8   11 1
  18   11   16 ar
  19   11   12 ar
  20   12   13 ar
  21   12   32 1
  22   13   14 ar
  23   13   33 1
  24   14   15 ar
  25   14   34 1
  26   15   16 ar
  27   15   35 1
  28   16   36 1
  29   17   18 2
  30   18   19 1
  31   18   26 1
  32   19   25 ar
  33   19   20 ar
  34   20   21 ar
  35   20   37 1
  36   21   22 ar
  37   21   38 1
  38   22   23 1
  39   22   24 ar
  40   24   25 ar
  41   24   39 1
  42   25   40 1


@<TRIPOS>MOLECULE
FC1=CC(OCC)=CC(F)=C1CN2N=C(C4=NC=C(OCCN(C)C)C(NC5=CC=NC=C5)=N4)C3=C2CCC3
72    76    1     0     0
SMALL
USER_CHARGES
@<TRIPOS>ATOM
1      C1     -0.9071    0.7383   -1.6488 C.3      1 ZINC000169341683   -0.1600
2      C2     -0.9320   -0.7686   -1.3846 C.3      1 ZINC000169341683    0.0500
3      O3     -2.2619   -1.1719   -1.0520 O.3      1 ZINC000169341683   -0.3000
4      C4     -2.4586   -2.4901   -0.7863 C.ar     1 ZINC000169341683    0.2100
5      C5     -1.3922   -3.3755   -0.8390 C.ar     1 ZINC000169341683   -0.2600
6      C6     -1.5938   -4.7174   -0.5682 C.ar     1 ZINC000169341683    0.2000
7      F7     -0.5552   -5.5800   -0.6190 F        1 ZINC000169341683   -0.1300
8      C8     -2.8594   -5.1765   -0.2447 C.ar     1 ZINC000169341683   -0.2400
9      C9     -3.0774   -6.6382    0.0499 C.3      1 ZINC000169341683    0.1800
10     N10    -2.8902   -6.8808    1.4825 N.pl3    1 ZINC000169341683   -0.3300
11     N11    -1.6825   -7.2111    2.1083 N.2      1 ZINC000169341683   -0.2400
12     C12    -1.9137   -7.3495    3.3962 C.2      1 ZINC000169341683    0.1200
13     C13    -0.9093   -7.6973    4.4302 C.ar     1 ZINC000169341683    0.4400
14     N14    -1.2952   -7.8065    5.6932 N.ar     1 ZINC000169341683   -0.4700
15     C15    -0.4288   -8.1154    6.6462 C.ar     1 ZINC000169341683    0.1200
16     C16     0.8994   -8.3262    6.3110 C.ar     1 ZINC000169341683   -0.0200
17     O17     1.8158   -8.6454    7.2639 O.3      1 ZINC000169341683   -0.3200
18     C18     1.3439   -8.7502    8.6087 C.3      1 ZINC000169341683    0.0200
19     C19     2.5091   -9.1136    9.5312 C.3      1 ZINC000169341683    0.0000
20     N20     3.4731   -8.0056    9.5622 N.4      1 ZINC000169341683   -0.3900
21     H21     3.7413   -7.7667    8.6192 H        1 ZINC000169341683    0.4300
22     C22     2.8569   -6.8382   10.2067 C.3      1 ZINC000169341683   -0.0600
23     C23     4.6630   -8.4128   10.3214 C.3      1 ZINC000169341683   -0.0500
24     C24     1.2754   -8.2032    4.9665 C.ar     1 ZINC000169341683    0.4000
25     N25     2.5947   -8.4052    4.5820 N.pl3    1 ZINC000169341683   -0.6300
26     C26     2.9805   -8.1672    3.2647 C.ar     1 ZINC000169341683    0.2900
27     C27     3.9962   -8.9156    2.6703 C.ar     1 ZINC000169341683   -0.1700
28     C28     4.3484   -8.6487    1.3640 C.ar     1 ZINC000169341683    0.1600
29     N29     3.7382   -7.6997    0.6790 N.ar     1 ZINC000169341683   -0.4700
30     H30     4.0071   -7.5338   -0.2381 H        1 ZINC000169341683    0.4500
31     C31     2.7724   -6.9703    1.2056 C.ar     1 ZINC000169341683    0.1600
32     C32     2.3572   -7.1782    2.5042 C.ar     1 ZINC000169341683   -0.1400
33     N33     0.3505   -7.8961    4.0657 N.ar     1 ZINC000169341683   -0.5100
34     C34    -3.2867   -7.1081    3.6200 C.2      1 ZINC000169341683   -0.2000
35     C35    -3.8541   -6.8187    2.4311 C.2      1 ZINC000169341683    0.0700
36     C36    -5.3332   -6.5490    2.6067 C.3      1 ZINC000169341683   -0.0500
37     C37    -5.6835   -7.1317    3.9935 C.3      1 ZINC000169341683   -0.1200
38     C38    -4.3226   -7.0600    4.7224 C.3      1 ZINC000169341683   -0.0400
39     C39    -3.9247   -4.2937   -0.1913 C.ar     1 ZINC000169341683    0.2000
40     F40    -5.1587   -4.7431    0.1254 F        1 ZINC000169341683   -0.1100
41     C41    -3.7248   -2.9503   -0.4565 C.ar     1 ZINC000169341683   -0.2000
42     H42     0.1073    1.0459   -1.9025 H        1 ZINC000169341683    0.0900
43     H43    -1.5758    0.9730   -2.4770 H        1 ZINC000169341683    0.0700
44     H44    -1.2351    1.2693   -0.7552 H        1 ZINC000169341683    0.0700
45     H45    -0.6040   -1.2996   -2.2782 H        1 ZINC000169341683    0.0700
46     H46    -0.2633   -1.0033   -0.5564 H        1 ZINC000169341683    0.0700
47     H47    -0.4049   -3.0177   -1.0916 H        1 ZINC000169341683    0.1500
48     H48    -4.0907   -6.9194   -0.2368 H        1 ZINC000169341683    0.1200
49     H49    -2.3612   -7.2338   -0.5161 H        1 ZINC000169341683    0.1100
50     H50    -0.7535   -8.2016    7.6726 H        1 ZINC000169341683    0.1900
51     H51     0.9181   -7.7962    8.9197 H        1 ZINC000169341683    0.1000
52     H52     0.5796   -9.5252    8.6661 H        1 ZINC000169341683    0.1200
53     H53     2.1324   -9.2956   10.5378 H        1 ZINC000169341683    0.1600
54     H54     3.0005  -10.0125    9.1591 H        1 ZINC000169341683    0.1500
55     H55     2.5672   -7.0963   11.2253 H        1 ZINC000169341683    0.1300
56     H56     3.5722   -6.0160   10.2296 H        1 ZINC000169341683    0.1300
57     H57     1.9740   -6.5360    9.6433 H        1 ZINC000169341683    0.1200
58     H58     5.1650   -9.2280    9.8003 H        1 ZINC000169341683    0.1300
59     H59     5.3434   -7.5661   10.4122 H        1 ZINC000169341683    0.1300
60     H60     4.3634   -8.7465   11.3149 H        1 ZINC000169341683    0.1300
61     H61     3.2474   -8.7119    5.2306 H        1 ZINC000169341683    0.4400
62     H62     4.5000   -9.6931    3.2254 H        1 ZINC000169341683    0.1800
63     H63     5.1338   -9.2233    0.8956 H        1 ZINC000169341683    0.2100
64     H64     2.2988   -6.2033    0.6108 H        1 ZINC000169341683    0.2100
65     H65     1.5663   -6.5778    2.9290 H        1 ZINC000169341683    0.1900
66     H66    -5.5278   -5.4767    2.5862 H        1 ZINC000169341683    0.0900
67     H67    -5.9054   -7.0537    1.8283 H        1 ZINC000169341683    0.0900
68     H68    -6.4269   -6.5149    4.4985 H        1 ZINC000169341683    0.0900
69     H69    -6.0281   -8.1621    3.9072 H        1 ZINC000169341683    0.0800
70     H70    -4.2037   -7.9152    5.3877 H        1 ZINC000169341683    0.0800
71     H71    -4.2416   -6.1288    5.2830 H        1 ZINC000169341683    0.0800
72     H72    -4.5559   -2.2619   -0.4144 H        1 ZINC000169341683    0.1600
@<TRIPOS>BOND
1     1     2     1
2     1     42    1
3     1     43    1
4     1     44    1
5     2     3     1
6     2     45    1
7     2     46    1
8     3     4     1
9     4     41    ar
10    4     5     ar
11    5     6     ar
12    5     47    1
13    6     7     1
14    6     8     ar
15    8     9     1
16    8     39    ar
17    9     10    1
18    9     48    1
19    9     49    1
20    10    35    1
21    10    11    1
22    11    12    2
23    12    13    1
24    12    34    1
25    13    33    ar
26    13    14    ar
27    14    15    ar
28    15    16    ar
29    15    50    1
30    16    17    1
31    16    24    ar
32    17    18    1
33    18    19    1
34    18    51    1
35    18    52    1
36    19    20    1
37    19    53    1
38    19    54    1
39    20    21    1
40    20    22    1
41    20    23    1
42    22    55    1
43    22    56    1
44    22    57    1
45    23    58    1
46    23    59    1
47    23    60    1
48    24    25    1
49    24    33    ar
50    25    26    1
51    25    61    1
52    26    32    ar
53    26    27    ar
54    27    28    ar
55    27    62    1
56    28    29    ar
57    28    63    1
58    29    30    1
59    29    31    ar
60    31    32    ar
61    31    64    1
62    32    65    1
63    34    38    1
64    34    35    2
65    35    36    1
66    36    37    1
67    36    66    1
68    36    67    1
69    37    38    1
70    37    68    1
71    37    69    1
72    38    70    1
73    38    71    1
74    39    40    1
75    39    41    ar
76    41    72    1
@<TRIPOS>SUBSTRUCTURE
1   ZINC000169341683 1     RESIDUE    1   A     ZIN   1


@<TRIPOS>MOLECULE
FC1=CC(OCC)=CC(F)=C1CN2N=C(C4=NC=C(OCC6(COC6)CO)C(NC5=CC=NC=C5)=N4)C3=C2CCC3
72    77    1     0     0
SMALL
USER_CHARGES
@<TRIPOS>ATOM
1      C1      1.0952    0.7483    0.8756 C.3      1 ZINC000169341684   -0.1600
2      C2      0.9419   -0.7636    0.6982 C.3      1 ZINC000169341684    0.0500
3      O3      1.5185   -1.1579   -0.5484 O.3      1 ZINC000169341684   -0.3000
4      C4      1.4660   -2.4791   -0.8621 C.ar     1 ZINC000169341684    0.2100
5      C5      0.8667   -3.3762    0.0097 C.ar     1 ZINC000169341684   -0.2600
6      C6      0.8140   -4.7213   -0.3110 C.ar     1 ZINC000169341684    0.2000
7      F7      0.2300   -5.5953    0.5377 F        1 ZINC000169341684   -0.1200
8      C8      1.3591   -5.1718   -1.5013 C.ar     1 ZINC000169341684   -0.2300
9      C9      1.3010   -6.6369   -1.8491 C.3      1 ZINC000169341684    0.1800
10     N10     0.0691   -6.9139   -2.5921 N.pl3    1 ZINC000169341684   -0.3400
11     N11    -1.1632   -7.2731   -2.0339 N.2      1 ZINC000169341684   -0.2400
12     C12    -2.0242   -7.4375   -3.0152 C.2      1 ZINC000169341684    0.1300
13     C13    -3.4493   -7.8209   -2.8700 C.ar     1 ZINC000169341684    0.4000
14     N14    -4.1955   -7.9536   -3.9570 N.ar     1 ZINC000169341684   -0.4600
15     C15    -5.4724   -8.2945   -3.8697 C.ar     1 ZINC000169341684    0.1000
16     C16    -6.0303   -8.5143   -2.6201 C.ar     1 ZINC000169341684    0.0100
17     O17    -7.3379   -8.8661   -2.4934 O.3      1 ZINC000169341684   -0.2700
18     C18    -8.0947   -8.9952   -3.6987 C.3      1 ZINC000169341684    0.0800
19     C19    -9.5321   -9.3936   -3.3582 C.3      1 ZINC000169341684   -0.1300
20     C20    -9.6113  -10.5591   -2.3701 C.3      1 ZINC000169341684    0.0900
21     O21    -8.7756  -10.2860   -1.2435 O.3      1 ZINC000169341684   -0.5600
22     C22   -10.4379   -8.2024   -2.9931 C.3      1 ZINC000169341684    0.0500
23     O23   -10.7706   -8.1712   -4.3956 O.3      1 ZINC000169341684   -0.3700
24     C24   -10.4399   -9.5608   -4.5913 C.3      1 ZINC000169341684    0.0600
25     C25    -5.2145   -8.3658   -1.4902 C.ar     1 ZINC000169341684    0.3800
26     N26    -5.7285   -8.5754   -0.2169 N.pl3    1 ZINC000169341684   -0.6200
27     C27    -4.9439   -8.3105    0.9032 C.ar     1 ZINC000169341684    0.3000
28     C28    -5.1018   -9.0461    2.0775 C.ar     1 ZINC000169341684   -0.1800
29     C29    -4.3052   -8.7525    3.1643 C.ar     1 ZINC000169341684    0.1600
30     N30    -3.4039   -7.7901    3.1024 N.ar     1 ZINC000169341684   -0.4700
31     H31    -2.8578   -7.6054    3.8825 H        1 ZINC000169341684    0.4500
32     C32    -3.2240   -7.0721    2.0096 C.ar     1 ZINC000169341684    0.1500
33     C33    -3.9760   -7.3067    0.8777 C.ar     1 ZINC000169341684   -0.1400
34     N34    -3.9421   -8.0271   -1.6558 N.ar     1 ZINC000169341684   -0.5100
35     C35    -1.3521   -7.1842   -4.2307 C.2      1 ZINC000169341684   -0.2000
36     C36    -0.0759   -6.8612   -3.9372 C.2      1 ZINC000169341684    0.0600
37     C37     0.6992   -6.5771   -5.2060 C.3      1 ZINC000169341684   -0.0500
38     C38    -0.1539   -7.1863   -6.3400 C.3      1 ZINC000169341684   -0.1200
39     C39    -1.5724   -7.1480   -5.7277 C.3      1 ZINC000169341684   -0.0400
40     C40     1.9572   -4.2773   -2.3726 C.ar     1 ZINC000169341684    0.2000
41     F41     2.4878   -4.7183   -3.5342 F        1 ZINC000169341684   -0.1200
42     C42     2.0066   -2.9309   -2.0569 C.ar     1 ZINC000169341684   -0.2000
43     H43     2.1533    1.0098    0.8658 H        1 ZINC000169341684    0.0700
44     H44     0.5861    1.2632    0.0609 H        1 ZINC000169341684    0.0700
45     H45     0.6554    1.0490    1.8266 H        1 ZINC000169341684    0.0800
46     H46     1.4510   -1.2785    1.5130 H        1 ZINC000169341684    0.0700
47     H47    -0.1162   -1.0252    0.7081 H        1 ZINC000169341684    0.0700
48     H48     0.4418   -3.0252    0.9384 H        1 ZINC000169341684    0.1500
49     H49     2.1625   -6.8990   -2.4633 H        1 ZINC000169341684    0.1100
50     H50     1.3139   -7.2285   -0.9337 H        1 ZINC000169341684    0.1100
51     H51    -6.0719   -8.3997   -4.7618 H        1 ZINC000169341684    0.1800
52     H52    -8.0976   -8.0432   -4.2296 H        1 ZINC000169341684    0.0800
53     H53    -7.6450   -9.7617   -4.3298 H        1 ZINC000169341684    0.0800
54     H54   -10.6415  -10.6833   -2.0366 H        1 ZINC000169341684    0.0600
55     H55    -9.2749  -11.4734   -2.8589 H        1 ZINC000169341684    0.0500
56     H56    -8.7767  -10.9843   -0.5746 H        1 ZINC000169341684    0.3800
57     H57   -11.2750   -8.4667   -2.3470 H        1 ZINC000169341684    0.0900
58     H58    -9.8930   -7.3232   -2.6494 H        1 ZINC000169341684    0.0900
59     H59    -9.8967   -9.7590   -5.5153 H        1 ZINC000169341684    0.1000
60     H60   -11.2777  -10.2400   -4.4333 H        1 ZINC000169341684    0.1000
61     H61    -6.6337   -8.9063   -0.1078 H        1 ZINC000169341684    0.4500
62     H62    -5.8378   -9.8344    2.1352 H        1 ZINC000169341684    0.1800
63     H63    -4.4205   -9.3169    4.0778 H        1 ZINC000169341684    0.2100
64     H64    -2.4755   -6.2935    2.0005 H        1 ZINC000169341684    0.2100
65     H65    -3.8237   -6.7155   -0.0132 H        1 ZINC000169341684    0.1900
66     H66     0.8092   -5.5023   -5.3502 H        1 ZINC000169341684    0.0900
67     H67     1.6771   -7.0571   -5.1679 H        1 ZINC000169341684    0.0800
68     H68    -0.1028   -6.5719   -7.2389 H        1 ZINC000169341684    0.0900
69     H69     0.1539   -8.2103   -6.5519 H        1 ZINC000169341684    0.0800
70     H70    -2.1456   -8.0193   -6.0446 H        1 ZINC000169341684    0.0800
71     H71    -2.0852   -6.2306   -6.0168 H        1 ZINC000169341684    0.0800
72     H72     2.4728   -2.2333   -2.7369 H        1 ZINC000169341684    0.1600
@<TRIPOS>BOND
1     1     2     1
2     1     43    1
3     1     44    1
4     1     45    1
5     2     3     1
6     2     46    1
7     2     47    1
8     3     4     1
9     4     42    ar
10    4     5     ar
11    5     6     ar
12    5     48    1
13    6     7     1
14    6     8     ar
15    8     9     1
16    8     40    ar
17    9     10    1
18    9     49    1
19    9     50    1
20    10    36    1
21    10    11    1
22    11    12    2
23    12    13    1
24    12    35    1
25    13    34    ar
26    13    14    ar
27    14    15    ar
28    15    16    ar
29    15    51    1
30    16    17    1
31    16    25    ar
32    17    18    1
33    18    19    1
34    18    52    1
35    18    53    1
36    19    24    1
37    19    20    1
38    19    22    1
39    20    21    1
40    20    54    1
41    20    55    1
42    21    56    1
43    22    23    1
44    22    57    1
45    22    58    1
46    23    24    1
47    24    59    1
48    24    60    1
49    25    26    1
50    25    34    ar
51    26    27    1
52    26    61    1
53    27    33    ar
54    27    28    ar
55    28    29    ar
56    28    62    1
57    29    30    ar
58    29    63    1
59    30    31    1
60    30    32    ar
61    32    33    ar
62    32    64    1
63    33    65    1
64    35    39    1
65    35    36    2
66    36    37    1
67    37    38    1
68    37    66    1
69    37    67    1
70    38    39    1
71    38    68    1
72    38    69    1
73    39    70    1
74    39    71    1
75    40    41    1
76    40    42    ar
77    42    72    1
@<TRIPOS>SUBSTRUCTURE
1   ZINC000169341684 1     RESIDUE    1   A     ZIN   1


@<TRIPOS>MOLECULE
FC1=CC=CC=C1CN2N=C(C4=NC=C(OC5=CC=CC=C5C(OCC)=O)C(NC6=C(C(OCC)=O)C=NC=C6)=N4)C3=C2CCC3
77    82    1     0     0
SMALL
USER_CHARGES
@<TRIPOS>ATOM
1      C1     -1.0750    1.7474    0.6673 C.3      1 ZINC000169341686   -0.1500
2      C2     -1.3567    0.2723    0.9596 C.3      1 ZINC000169341686    0.0600
3      O3     -1.2564   -0.4926   -0.2705 O.3      1 ZINC000169341686   -0.3600
4      C4     -1.4779   -1.8192   -0.1858 C.2      1 ZINC000169341686    0.5100
5      O5     -1.7474   -2.3229    0.8866 O.2      1 ZINC000169341686   -0.4800
6      C6     -1.3931   -2.6590   -1.3940 C.ar     1 ZINC000169341686   -0.1500
7      C7     -1.0778   -2.0851   -2.6283 C.ar     1 ZINC000169341686   -0.0300
8      C8     -1.0002   -2.8760   -3.7541 C.ar     1 ZINC000169341686   -0.1600
9      C9     -1.2339   -4.2388   -3.6687 C.ar     1 ZINC000169341686   -0.0400
10     C10    -1.5465   -4.8196   -2.4556 C.ar     1 ZINC000169341686   -0.2100
11     C11    -1.6229   -4.0403   -1.3107 C.ar     1 ZINC000169341686    0.1700
12     O12    -1.9293   -4.6093   -0.1185 O.3      1 ZINC000169341686   -0.2100
13     C13    -2.2579   -5.9286   -0.1065 C.ar     1 ZINC000169341686   -0.0700
14     C14    -3.5825   -6.3311   -0.1853 C.ar     1 ZINC000169341686    0.1900
15     N15    -3.8672   -7.6242   -0.1710 N.ar     1 ZINC000169341686   -0.5000
16     C16    -2.9067   -8.5330   -0.0827 C.ar     1 ZINC000169341686    0.4400
17     C17    -3.2718   -9.9701   -0.0706 C.2      1 ZINC000169341686    0.1300
18     N18    -2.4339  -10.9808    0.0177 N.2      1 ZINC000169341686   -0.2300
19     N19    -3.1782  -12.1661   -0.0040 N.pl3    1 ZINC000169341686   -0.3400
20     C20    -2.6340  -13.5240    0.0732 C.3      1 ZINC000169341686    0.1800
21     C21    -2.5503  -13.9504    1.5162 C.ar     1 ZINC000169341686   -0.1600
22     C22    -1.3713  -13.7868    2.2180 C.ar     1 ZINC000169341686   -0.0600
23     C23    -1.2943  -14.1780    3.5419 C.ar     1 ZINC000169341686   -0.1300
24     C24    -2.3961  -14.7334    4.1648 C.ar     1 ZINC000169341686   -0.0800
25     C25    -3.5764  -14.8984    3.4647 C.ar     1 ZINC000169341686   -0.1600
26     C26    -3.6567  -14.5011    2.1410 C.ar     1 ZINC000169341686    0.1200
27     F27    -4.8098  -14.6619    1.4557 F        1 ZINC000169341686   -0.1300
28     C28    -4.4882  -11.8402   -0.1079 C.2      1 ZINC000169341686    0.0600
29     C29    -4.5803  -10.4952   -0.1456 C.2      1 ZINC000169341686   -0.2000
30     C30    -6.0284  -10.0706   -0.2627 C.3      1 ZINC000169341686   -0.0400
31     C31    -6.7801  -11.3381   -0.7249 C.3      1 ZINC000169341686   -0.1200
32     C32    -5.8650  -12.4637   -0.1912 C.3      1 ZINC000169341686   -0.0400
33     N33    -1.6273   -8.1913   -0.0054 N.ar     1 ZINC000169341686   -0.5300
34     C34    -1.2656   -6.9146   -0.0201 C.ar     1 ZINC000169341686    0.4200
35     N35     0.0752   -6.5605    0.0611 N.pl3    1 ZINC000169341686   -0.6200
36     C36     1.0542   -7.5410    0.0276 C.ar     1 ZINC000169341686    0.2700
37     C37     0.8107   -8.7775   -0.5690 C.ar     1 ZINC000169341686   -0.1900
38     C38     1.8100   -9.7267   -0.5820 C.ar     1 ZINC000169341686    0.1600
39     N39     2.9911   -9.4856   -0.0403 N.ar     1 ZINC000169341686   -0.5100
40     C40     3.2755   -8.3367    0.5359 C.ar     1 ZINC000169341686    0.1900
41     C41     2.3266   -7.3148    0.5907 C.ar     1 ZINC000169341686   -0.2300
42     C42     2.6445   -6.0288    1.2355 C.2      1 ZINC000169341686    0.5200
43     O43     1.7786   -5.1872    1.3721 O.2      1 ZINC000169341686   -0.5100
44     O44     3.8954   -5.7858    1.6737 O.3      1 ZINC000169341686   -0.3500
45     C45     4.1363   -4.4976    2.2990 C.3      1 ZINC000169341686    0.0600
46     C46     5.6018   -4.4053    2.7286 C.3      1 ZINC000169341686   -0.1500
47     H47    -1.1504    2.3216    1.5907 H        1 ZINC000169341686    0.0800
48     H48    -0.0710    1.8511    0.2559 H        1 ZINC000169341686    0.0700
49     H49    -1.8031    2.1206   -0.0530 H        1 ZINC000169341686    0.0700
50     H50    -0.6286   -0.1008    1.6799 H        1 ZINC000169341686    0.0700
51     H51    -2.3607    0.1686    1.3710 H        1 ZINC000169341686    0.0700
52     H52    -0.8955   -1.0230   -2.7000 H        1 ZINC000169341686    0.1500
53     H53    -0.7564   -2.4313   -4.7076 H        1 ZINC000169341686    0.1400
54     H54    -1.1716   -4.8507   -4.5565 H        1 ZINC000169341686    0.1400
55     H55    -1.7276   -5.8827   -2.3974 H        1 ZINC000169341686    0.1300
56     H56    -4.3728   -5.5985   -0.2571 H        1 ZINC000169341686    0.1900
57     H57    -3.2856  -14.2080   -0.4706 H        1 ZINC000169341686    0.1100
58     H58    -1.6380  -13.5420   -0.3693 H        1 ZINC000169341686    0.1100
59     H59    -0.5096  -13.3536    1.7320 H        1 ZINC000169341686    0.1400
60     H60    -0.3723  -14.0498    4.0896 H        1 ZINC000169341686    0.1300
61     H61    -2.3346  -15.0389    5.1989 H        1 ZINC000169341686    0.1400
62     H62    -4.4370  -15.3330    3.9515 H        1 ZINC000169341686    0.1400
63     H63    -6.4051   -9.7383    0.7046 H        1 ZINC000169341686    0.0800
64     H64    -6.1319   -9.2776   -1.0033 H        1 ZINC000169341686    0.0800
65     H65    -7.7684  -11.3929   -0.2686 H        1 ZINC000169341686    0.0800
66     H66    -6.8521  -11.3735   -1.8120 H        1 ZINC000169341686    0.0800
67     H67    -5.8554  -13.3048   -0.8845 H        1 ZINC000169341686    0.0800
68     H68    -6.1989  -12.7879    0.7944 H        1 ZINC000169341686    0.0900
69     H69     0.3263   -5.6270    0.1412 H        1 ZINC000169341686    0.4400
70     H70    -0.1497   -8.9891   -1.0154 H        1 ZINC000169341686    0.1700
71     H71     1.6243  -10.6855   -1.0431 H        1 ZINC000169341686    0.1700
72     H72     4.2539   -8.1818    0.9663 H        1 ZINC000169341686    0.1700
73     H73     3.9153   -3.7016    1.5879 H        1 ZINC000169341686    0.0700
74     H74     3.4940   -4.3924    3.1734 H        1 ZINC000169341686    0.0700
75     H75     5.8228   -5.2013    3.4397 H        1 ZINC000169341686    0.0700
76     H76     6.2441   -4.5105    1.8542 H        1 ZINC000169341686    0.0700
77     H77     5.7826   -3.4382    3.1980 H        1 ZINC000169341686    0.0800
@<TRIPOS>BOND
1     1     2     1
2     1     47    1
3     1     48    1
4     1     49    1
5     2     3     1
6     2     50    1
7     2     51    1
8     3     4     1
9     4     5     2
10    4     6     1
11    6     11    ar
12    6     7     ar
13    7     8     ar
14    7     52    1
15    8     9     ar
16    8     53    1
17    9     10    ar
18    9     54    1
19    10    11    ar
20    10    55    1
21    11    12    1
22    12    13    1
23    13    34    ar
24    13    14    ar
25    14    15    ar
26    14    56    1
27    15    16    ar
28    16    17    1
29    16    33    ar
30    17    29    1
31    17    18    2
32    18    19    1
33    19    20    1
34    19    28    1
35    20    21    1
36    20    57    1
37    20    58    1
38    21    26    ar
39    21    22    ar
40    22    23    ar
41    22    59    1
42    23    24    ar
43    23    60    1
44    24    25    ar
45    24    61    1
46    25    26    ar
47    25    62    1
48    26    27    1
49    28    32    1
50    28    29    2
51    29    30    1
52    30    31    1
53    30    63    1
54    30    64    1
55    31    32    1
56    31    65    1
57    31    66    1
58    32    67    1
59    32    68    1
60    33    34    ar
61    34    35    1
62    35    36    1
63    35    69    1
64    36    41    ar
65    36    37    ar
66    37    38    ar
67    37    70    1
68    38    39    ar
69    38    71    1
70    39    40    ar
71    40    41    ar
72    40    72    1
73    41    42    1
74    42    43    2
75    42    44    1
76    44    45    1
77    45    46    1
78    45    73    1
79    45    74    1
80    46    75    1
81    46    76    1
82    46    77    1
@<TRIPOS>SUBSTRUCTURE
1   ZINC000169341686 1     RESIDUE    1   A     ZIN   1


@<TRIPOS>MOLECULE
FC1=CC=CC=C1CN2N=C(C4=NC=C(OCCO)C(N(CCO)C5=C(C(N)=O)C=NC=C5)=N4)C3=C2CCC3
67    71    1     0     0
SMALL
USER_CHARGES
@<TRIPOS>ATOM
1      N1      0.8025    1.2087    0.4635 N.am     1 ZINC000169341689   -0.8500
2      C2      0.4996   -0.0949    0.3043 C.2      1 ZINC000169341689    0.5700
3      O3      1.3675   -0.9390    0.4176 O.2      1 ZINC000169341689   -0.5200
4      C4     -0.8845   -0.4976   -0.0072 C.ar     1 ZINC000169341689   -0.1900
5      C5     -1.9113    0.4463   -0.0297 C.ar     1 ZINC000169341689    0.1400
6      N6     -3.1470    0.0867   -0.3078 N.ar     1 ZINC000169341689   -0.4800
7      C7     -3.4706   -1.1662   -0.5756 C.ar     1 ZINC000169341689    0.1300
8      C8     -2.5206   -2.1649   -0.5763 C.ar     1 ZINC000169341689   -0.1500
9      C9     -1.1939   -1.8422   -0.2935 C.ar     1 ZINC000169341689    0.2700
10     N10    -0.2091   -2.8178   -0.2848 N.pl3    1 ZINC000169341689   -0.5300
11     C11     0.6054   -3.0471   -1.4807 C.3      1 ZINC000169341689    0.1400
12     C12     0.0118   -4.2032   -2.2881 C.3      1 ZINC000169341689    0.0600
13     O13    -1.2888   -3.8395   -2.7552 O.3      1 ZINC000169341689   -0.5700
14     C14     0.0054   -3.5782    0.8581 C.ar     1 ZINC000169341689    0.4500
15     N15    -0.6543   -3.3117    1.9783 N.ar     1 ZINC000169341689   -0.5200
16     C16    -0.4520   -4.0355    3.0712 C.ar     1 ZINC000169341689    0.4000
17     C17    -1.2081   -3.7080    4.3041 C.2      1 ZINC000169341689    0.1500
18     N18    -2.0950   -2.7451    4.4352 N.2      1 ZINC000169341689   -0.2300
19     N19    -2.5755   -2.7721    5.7496 N.pl3    1 ZINC000169341689   -0.3500
20     C20    -3.5788   -1.8676    6.3166 C.3      1 ZINC000169341689    0.1800
21     C21    -4.9531   -2.4523    6.1154 C.ar     1 ZINC000169341689   -0.1500
22     C22    -5.7089   -2.0803    5.0201 C.ar     1 ZINC000169341689   -0.0600
23     C23    -6.9699   -2.6166    4.8354 C.ar     1 ZINC000169341689   -0.1300
24     C24    -7.4761   -3.5248    5.7461 C.ar     1 ZINC000169341689   -0.0800
25     C25    -6.7220   -3.8980    6.8427 C.ar     1 ZINC000169341689   -0.1600
26     C26    -5.4567   -3.3668    7.0252 C.ar     1 ZINC000169341689    0.1200
27     F27    -4.7188   -3.7308    8.0968 F        1 ZINC000169341689   -0.1300
28     C28    -1.9525   -3.7789    6.4063 C.2      1 ZINC000169341689    0.0500
29     C29    -1.1077   -4.3785    5.5426 C.2      1 ZINC000169341689   -0.2100
30     C30    -0.3796   -5.5169    6.2244 C.3      1 ZINC000169341689   -0.0400
31     C31    -0.5709   -5.2650    7.7360 C.3      1 ZINC000169341689   -0.1200
32     C32    -1.8858   -4.4530    7.7599 C.3      1 ZINC000169341689   -0.0400
33     N33     0.4077   -5.0439    3.0905 N.ar     1 ZINC000169341689   -0.5000
34     C34     1.1018   -5.3683    2.0103 C.ar     1 ZINC000169341689    0.0900
35     C35     0.9175   -4.6420    0.8440 C.ar     1 ZINC000169341689   -0.0200
36     O36     1.6134   -4.9476   -0.2839 O.3      1 ZINC000169341689   -0.2900
37     C37     2.5308   -6.0403   -0.2041 C.3      1 ZINC000169341689    0.0500
38     C38     3.2148   -6.2320   -1.5592 C.3      1 ZINC000169341689    0.0800
39     O39     4.0163   -5.0864   -1.8545 O.3      1 ZINC000169341689   -0.5700
40     H40     1.7129    1.4736    0.6683 H        1 ZINC000169341689    0.4100
41     H41     0.1110    1.8824    0.3692 H        1 ZINC000169341689    0.4000
42     H42    -1.6907    1.4819    0.1833 H        1 ZINC000169341689    0.1600
43     H43    -4.4985   -1.4122   -0.7977 H        1 ZINC000169341689    0.1600
44     H44    -2.7998   -3.1845   -0.7970 H        1 ZINC000169341689    0.1400
45     H45     0.6156   -2.1446   -2.0919 H        1 ZINC000169341689    0.0800
46     H46     1.6242   -3.2965   -1.1841 H        1 ZINC000169341689    0.1200
47     H47     0.6563   -4.4200   -3.1400 H        1 ZINC000169341689    0.0500
48     H48    -0.0635   -5.0874   -1.6552 H        1 ZINC000169341689    0.0600
49     H49    -1.7261   -4.5269   -3.2761 H        1 ZINC000169341689    0.3800
50     H50    -3.3910   -1.7390    7.3826 H        1 ZINC000169341689    0.1100
51     H51    -3.5189   -0.9002    5.8179 H        1 ZINC000169341689    0.1100
52     H52    -5.3147   -1.3702    4.3083 H        1 ZINC000169341689    0.1400
53     H53    -7.5599   -2.3253    3.9790 H        1 ZINC000169341689    0.1300
54     H54    -8.4613   -3.9428    5.6009 H        1 ZINC000169341689    0.1400
55     H55    -7.1180   -4.6072    7.5546 H        1 ZINC000169341689    0.1400
56     H56    -0.8207   -6.4725    5.9408 H        1 ZINC000169341689    0.0700
57     H57     0.6796   -5.4967    5.9680 H        1 ZINC000169341689    0.0800
58     H58    -0.6857   -6.2048    8.2760 H        1 ZINC000169341689    0.0800
59     H59     0.2568   -4.6830    8.1416 H        1 ZINC000169341689    0.0800
60     H60    -1.8544   -3.7043    8.5515 H        1 ZINC000169341689    0.0800
61     H61    -2.7387   -5.1173    7.8993 H        1 ZINC000169341689    0.0900
62     H62     1.8002   -6.1916    2.0365 H        1 ZINC000169341689    0.1700
63     H63     3.2829   -5.8286    0.5559 H        1 ZINC000169341689    0.0700
64     H64     1.9910   -6.9491    0.0622 H        1 ZINC000169341689    0.0800
65     H65     3.8474   -7.1189   -1.5246 H        1 ZINC000169341689    0.0700
66     H66     2.4580   -6.3554   -2.3339 H        1 ZINC000169341689    0.0600
67     H67     4.4806   -5.1388   -2.7011 H        1 ZINC000169341689    0.3800
@<TRIPOS>BOND
1     1     2     am
2     1     40    1
3     1     41    1
4     2     3     2
5     2     4     1
6     4     9     ar
7     4     5     ar
8     5     6     ar
9     5     42    1
10    6     7     ar
11    7     8     ar
12    7     43    1
13    8     9     ar
14    8     44    1
15    9     10    1
16    10    11    1
17    10    14    1
18    11    12    1
19    11    45    1
20    11    46    1
21    12    13    1
22    12    47    1
23    12    48    1
24    13    49    1
25    14    35    ar
26    14    15    ar
27    15    16    ar
28    16    17    1
29    16    33    ar
30    17    29    1
31    17    18    2
32    18    19    1
33    19    20    1
34    19    28    1
35    20    21    1
36    20    50    1
37    20    51    1
38    21    26    ar
39    21    22    ar
40    22    23    ar
41    22    52    1
42    23    24    ar
43    23    53    1
44    24    25    ar
45    24    54    1
46    25    26    ar
47    25    55    1
48    26    27    1
49    28    32    1
50    28    29    2
51    29    30    1
52    30    31    1
53    30    56    1
54    30    57    1
55    31    32    1
56    31    58    1
57    31    59    1
58    32    60    1
59    32    61    1
60    33    34    ar
61    34    35    ar
62    34    62    1
63    35    36    1
64    36    37    1
65    37    38    1
66    37    63    1
67    37    64    1
68    38    39    1
69    38    65    1
70    38    66    1
71    39    67    1
@<TRIPOS>SUBSTRUCTURE
1   ZINC000169341689 1     RESIDUE    1   A     ZIN   1


@<TRIPOS>MOLECULE
O=C2N1C=NC(C(N)=O)=C1N=NN2C
  20   21    0    0    0
SMALL
USER_CHARGES
NO_NAME
@<TRIPOS>ATOM
    1 C1       -0.0178     1.4608     0.0101 C.3    1 <0>       0.1000
    2 N2        0.0021    -0.0041     0.0020 N.am   1 <0>      -0.4700
    3 N3        0.0058    -0.7008    -1.2135 N.2    1 <0>       0.0900
    4 N4        0.0232    -1.9899    -1.2265 N.2    1 <0>      -0.1300
    5 C5        0.0381    -2.6871    -0.0751 C.2    1 <0>       0.1300
    6 C6        0.0579    -4.0467     0.2167 C.2    1 <0>       0.0700
    7 C7        0.0687    -5.1459    -0.7568 C.2    1 <0>       0.6000
    8 N8        0.0879    -6.4241    -0.3298 N.am   1 <0>      -0.8300
    9 O9        0.0602    -4.9028    -1.9491 O.2    1 <0>      -0.5100
   10 N10       0.0658    -4.1683     1.5621 N.2    1 <0>      -0.4300
   11 C11       0.0524    -2.9878     2.1091 C.2    1 <0>       0.2900
   12 N12       0.0349    -2.0351     1.1355 N.am   1 <0>      -0.4700
   13 C13       0.0224    -0.6881     1.1659 C.2    1 <0>       0.6800
   14 O14       0.0264    -0.0965     2.2275 O.2    1 <0>      -0.4900
   15 H15       1.0048     1.8381     0.0023 H      1 <0>       0.0900
   16 H16      -0.5450     1.8219    -0.8730 H      1 <0>       0.1100
   17 H17      -0.5280     1.8123     0.9069 H      1 <0>       0.1000
   18 H18       0.0947    -6.6179     0.6206 H      1 <0>       0.4100
   19 H19       0.0950    -7.1503    -0.9729 H      1 <0>       0.4100
   20 H20       0.0541    -2.7933     3.1715 H      1 <0>       0.2400
@<TRIPOS>BOND
   1    1    2 1
   2    1   15 1
   3    1   16 1
   4    1   17 1
   5    2   13 am
   6    2    3 1
   7    3    4 2
   8    4    5 1
   9    5   12 1
  10    5    6 2
  11    6    7 1
  12    6   10 1
  13    7    8 am
  14    7    9 2
  15    8   18 1
  16    8   19 1
  17   10   11 2
  18   11   12 1
  19   11   20 1
  20   12   13 am
  21   13   14 2


@<TRIPOS>MOLECULE
OC1=C(C=CS2)C2=CC(/C=C\C3=CC(OC)=C(OC)C(OC)=C3)=C1
  42   44    0    0    0
SMALL
USER_CHARGES
NO_NAME
@<TRIPOS>ATOM
    1 C1        0.7024     0.5894     0.7536 C.3    1 <0>       0.0200
    2 O2        0.4838    -0.7698     0.3703 O.3    1 <0>      -0.3000
    3 C3       -0.7981    -1.1375     0.1036 C.ar   1 <0>       0.1500
    4 C4       -1.8182    -0.2088     0.2036 C.ar   1 <0>      -0.2200
    5 C5       -3.1352    -0.5875    -0.0711 C.ar   1 <0>       0.0100
    6 C6       -4.2242     0.3991     0.0339 C.2    1 <0>      -0.1000
    7 C7       -5.4267     0.0252     0.5026 C.2    1 <0>      -0.1000
    8 C8       -5.5999    -1.3068     1.1062 C.ar   1 <0>      -0.0300
    9 C9       -4.5748    -1.8641     1.8847 C.ar   1 <0>      -0.1200
   10 C10      -4.7327    -3.1052     2.4482 C.ar   1 <0>       0.1500
   11 O11      -3.7335    -3.6365     3.2003 O.3    1 <0>      -0.4900
   12 C12      -5.9310    -3.8370     2.2519 C.ar   1 <0>      -0.1000
   13 C13      -6.2950    -5.1507     2.7548 C.2    1 <0>      -0.1100
   14 C14      -7.4932    -5.5703     2.3976 C.2    1 <0>      -0.1900
   15 S15      -8.3124    -4.3878     1.3959 S.3    1 <0>       0.0900
   16 C16      -6.9500    -3.2770     1.4755 C.ar   1 <0>      -0.1300
   17 C17      -6.7823    -2.0119     0.9102 C.ar   1 <0>      -0.0900
   18 C18      -3.4168    -1.9041    -0.4461 C.ar   1 <0>      -0.2100
   19 C19      -2.3920    -2.8278    -0.5442 C.ar   1 <0>       0.1500
   20 O20      -2.6650    -4.1091    -0.9095 O.3    1 <0>      -0.3000
   21 C21      -4.0156    -4.4075    -1.2684 C.3    1 <0>       0.0300
   22 C22      -1.0812    -2.4462    -0.2752 C.ar   1 <0>       0.0300
   23 O23      -0.0754    -3.3571    -0.3729 O.3    1 <0>      -0.3100
   24 C24       0.5654    -3.4820    -1.6440 C.3    1 <0>       0.0400
   25 H25       1.7650     0.7488     0.9368 H      1 <0>       0.1000
   26 H26       0.3683     1.2506    -0.0460 H      1 <0>       0.0600
   27 H27       0.1406     0.8055     1.6623 H      1 <0>       0.0600
   28 H28      -1.5974     0.8077     0.4939 H      1 <0>       0.1400
   29 H29      -4.0560     1.4230    -0.2659 H      1 <0>       0.1400
   30 H30      -6.2661     0.7015     0.4366 H      1 <0>       0.1400
   31 H31      -3.6581    -1.3148     2.0407 H      1 <0>       0.1400
   32 H32      -3.7466    -3.3569     4.1259 H      1 <0>       0.3900
   33 H33      -5.6342    -5.7392     3.3740 H      1 <0>       0.1500
   34 H34      -7.9159    -6.5215     2.6855 H      1 <0>       0.1700
   35 H35      -7.5735    -1.5798     0.3155 H      1 <0>       0.1300
   36 H36      -4.4335    -2.2000    -0.6587 H      1 <0>       0.1400
   37 H37      -4.1090    -5.4732    -1.4776 H      1 <0>       0.1000
   38 H38      -4.6780    -4.1394    -0.4453 H      1 <0>       0.0600
   39 H39      -4.2901    -3.8376    -2.1561 H      1 <0>       0.0600
   40 H40       1.3462    -4.2402    -1.5844 H      1 <0>       0.0900
   41 H41      -0.1692    -3.7752    -2.3941 H      1 <0>       0.0400
   42 H42       1.0081    -2.5259    -1.9233 H      1 <0>       0.0400
@<TRIPOS>BOND
   1    1    2 1
   2    1   25 1
   3    1   26 1
   4    1   27 1
   5    2    3 1
   6    3   22 ar
   7    3    4 ar
   8    4    5 ar
   9    4   28 1
  10    5    6 1
  11    5   18 ar
  12    6    7 2
  13    6   29 1
  14    7    8 1
  15    7   30 1
  16    8   17 ar
  17    8    9 ar
  18    9   10 ar
  19    9   31 1
  20   10   11 1
  21   10   12 ar
  22   11   32 1
  23   12   16 ar
  24   12   13 1
  25   13   14 2
  26   13   33 1
  27   14   15 1
  28   14   34 1
  29   15   16 1
  30   16   17 ar
  31   17   35 1
  32   18   19 ar
  33   18   36 1
  34   19   20 1
  35   19   22 ar
  36   20   21 1
  37   21   37 1
  38   21   38 1
  39   21   39 1
  40   22   23 1
  41   23   24 1
  42   24   40 1
  43   24   41 1
  44   24   42 1


@<TRIPOS>MOLECULE
CCC[C@@H](OC[NH2+]C)CC(CCC1=CC=C(O)C(OCC2=CC(C=CC(O)=C3)=C3C=C2)=C1)=O
67    69    1     0     0
SMALL
USER_CHARGES
@<TRIPOS>ATOM
1      C1     -0.3092    1.4911    0.0413 C.3      1 ZINC000085597499   -0.1600
2      C2     -0.1696   -0.0322    0.0716 C.3      1 ZINC000085597499   -0.1300
3      C3     -1.5558   -0.6733   -0.0198 C.3      1 ZINC000085597499   -0.1700
4      C4     -1.4098   -2.1938   -0.1069 C.3      1 ZINC000085597499    0.0700
5      H5     -0.7328   -2.4477   -0.9226 H        1 ZINC000085597499    0.1400
6      C6     -2.7798   -2.8237   -0.3664 C.3      1 ZINC000085597499   -0.2000
7      C7     -2.6192   -4.3076   -0.5742 C.2      1 ZINC000085597499    0.3500
8      O8     -1.5222   -4.8096   -0.5204 O.2      1 ZINC000085597499   -0.4200
9      C9     -3.8275   -5.1651   -0.8493 C.3      1 ZINC000085597499   -0.1700
10     C10    -3.3911   -6.6216   -1.0201 C.3      1 ZINC000085597499   -0.0700
11     C11    -4.5995   -7.4791   -1.2952 C.ar     1 ZINC000085597499   -0.0600
12     C12    -5.2957   -8.0467   -0.2448 C.ar     1 ZINC000085597499   -0.1400
13     C13    -6.4049   -8.8347   -0.4920 C.ar     1 ZINC000085597499   -0.1000
14     C14    -6.8206   -9.0562   -1.7947 C.ar     1 ZINC000085597499    0.0800
15     O15    -7.9114   -9.8306   -2.0395 O.3      1 ZINC000085597499   -0.4800
16     C16    -6.1197   -8.4843   -2.8525 C.ar     1 ZINC000085597499    0.1100
17     O17    -6.5242   -8.6985   -4.1331 O.3      1 ZINC000085597499   -0.3000
18     C18    -5.7569   -8.0799   -5.1679 C.3      1 ZINC000085597499    0.1000
19     C19    -6.3503   -8.4270   -6.5090 C.ar     1 ZINC000085597499   -0.1000
20     C20    -5.9146   -9.5694   -7.1771 C.ar     1 ZINC000085597499   -0.0900
21     C21    -6.4302   -9.9116   -8.3895 C.ar     1 ZINC000085597499   -0.1000
22     C22    -7.4169   -9.1028   -8.9789 C.ar     1 ZINC000085597499   -0.0300
23     C23    -7.9721   -9.4248  -10.2283 C.ar     1 ZINC000085597499   -0.1400
24     C24    -8.9294   -8.6155  -10.7703 C.ar     1 ZINC000085597499    0.1200
25     O25    -9.4658   -8.9281  -11.9791 O.3      1 ZINC000085597499   -0.5000
26     C26    -9.3653   -7.4695  -10.0975 C.ar     1 ZINC000085597499   -0.1400
27     C27    -8.8477   -7.1304   -8.8867 C.ar     1 ZINC000085597499   -0.0900
28     C28    -7.8601   -7.9404   -8.2990 C.ar     1 ZINC000085597499   -0.0700
29     C29    -7.3079   -7.6227   -7.0469 C.ar     1 ZINC000085597499   -0.0700
30     C30    -5.0125   -7.6917   -2.5977 C.ar     1 ZINC000085597499   -0.1900
31     O31    -0.8815   -2.6929    1.1235 O.3      1 ZINC000085597499   -0.3300
32     C32    -1.1631   -1.8664    2.2547 C.3      1 ZINC000085597499    0.1300
33     N33    -2.5738   -2.0201    2.6344 N.4      1 ZINC000085597499   -0.5400
34     H34    -3.1614   -1.7737    1.8521 H        1 ZINC000085597499    0.4200
35     H35    -2.7487   -2.9783    2.8977 H        1 ZINC000085597499    0.4300
36     C36    -2.8743   -1.1376    3.7697 C.3      1 ZINC000085597499   -0.0500
37     H37     0.6783    1.9478    0.1064 H        1 ZINC000085597499    0.0700
38     H38    -0.7887    1.7935   -0.8897 H        1 ZINC000085597499    0.0600
39     H39    -0.9167    1.8172    0.8855 H        1 ZINC000085597499    0.0500
40     H40     0.4379   -0.3583   -0.7726 H        1 ZINC000085597499    0.0800
41     H41     0.3099   -0.3347    1.0026 H        1 ZINC000085597499    0.0700
42     H42    -2.1352   -0.4141    0.8664 H        1 ZINC000085597499    0.0600
43     H43    -2.0681   -0.3060   -0.9090 H        1 ZINC000085597499    0.1000
44     H44    -3.4299   -2.6451    0.4900 H        1 ZINC000085597499    0.0800
45     H45    -3.2218   -2.3778   -1.2574 H        1 ZINC000085597499    0.1300
46     H46    -4.5240   -5.0901   -0.0142 H        1 ZINC000085597499    0.1000
47     H47    -4.3159   -4.8228   -1.7617 H        1 ZINC000085597499    0.1000
48     H48    -2.6946   -6.6967   -1.8552 H        1 ZINC000085597499    0.0800
49     H49    -2.9027   -6.9639   -0.1077 H        1 ZINC000085597499    0.0800
50     H50    -4.9726   -7.8747    0.7713 H        1 ZINC000085597499    0.1300
51     H51    -6.9468   -9.2776    0.3305 H        1 ZINC000085597499    0.1400
52     H52    -8.7441   -9.3397   -2.0668 H        1 ZINC000085597499    0.3900
53     H53    -5.7708   -6.9983   -5.0334 H        1 ZINC000085597499    0.0700
54     H54    -4.7287   -8.4386   -5.1217 H        1 ZINC000085597499    0.0700
55     H55    -5.1562  -10.1925   -6.7265 H        1 ZINC000085597499    0.1300
56     H56    -6.0826  -10.7999   -8.8961 H        1 ZINC000085597499    0.1300
57     H57    -7.6437  -10.3071  -10.7575 H        1 ZINC000085597499    0.1400
58     H58   -10.2492   -9.4928  -11.9276 H        1 ZINC000085597499    0.4000
59     H59   -10.1235   -6.8449  -10.5462 H        1 ZINC000085597499    0.1300
60     H60    -9.1935   -6.2423   -8.3787 H        1 ZINC000085597499    0.1300
61     H61    -7.6386   -6.7426   -6.5155 H        1 ZINC000085597499    0.1300
62     H62    -4.4669   -7.2467   -3.4166 H        1 ZINC000085597499    0.1300
63     H63    -0.5278   -2.1637    3.0890 H        1 ZINC000085597499    0.1700
64     H64    -0.9664   -0.8246    2.0015 H        1 ZINC000085597499    0.1400
65     H65    -2.2394   -1.4039    4.6148 H        1 ZINC000085597499    0.1300
66     H66    -2.6853   -0.1025    3.4852 H        1 ZINC000085597499    0.1200
67     H67    -3.9210   -1.2517    4.0514 H        1 ZINC000085597499    0.1300
@<TRIPOS>BOND
1     1     2     1
2     1     37    1
3     1     38    1
4     1     39    1
5     2     3     1
6     2     40    1
7     2     41    1
8     3     4     1
9     3     42    1
10    3     43    1
11    4     5     1
12    4     6     1
13    4     31    1
14    6     7     1
15    6     44    1
16    6     45    1
17    7     8     2
18    7     9     1
19    9     10    1
20    9     46    1
21    9     47    1
22    10    11    1
23    10    48    1
24    10    49    1
25    11    30    ar
26    11    12    ar
27    12    13    ar
28    12    50    1
29    13    14    ar
30    13    51    1
31    14    15    1
32    14    16    ar
33    15    52    1
34    16    17    1
35    16    30    ar
36    17    18    1
37    18    19    1
38    18    53    1
39    18    54    1
40    19    29    ar
41    19    20    ar
42    20    21    ar
43    20    55    1
44    21    22    ar
45    21    56    1
46    22    28    ar
47    22    23    ar
48    23    24    ar
49    23    57    1
50    24    25    1
51    24    26    ar
52    25    58    1
53    26    27    ar
54    26    59    1
55    27    28    ar
56    27    60    1
57    28    29    ar
58    29    61    1
59    30    62    1
60    31    32    1
61    32    33    1
62    32    63    1
63    32    64    1
64    33    34    1
65    33    35    1
66    33    36    1
67    36    65    1
68    36    66    1
69    36    67    1
@<TRIPOS>SUBSTRUCTURE
1   ZINC000085597499 1     RESIDUE    1   A     ZIN   1


@<TRIPOS>MOLECULE
OC1=C(O)C(CCC2=C(C/C=C(C)\C)C(OC)=C(C)C(O)=C2)=CC=C1
51    52    1     0     0
SMALL
USER_CHARGES
@<TRIPOS>ATOM
1      C1     -0.0173    1.4248    0.0099 C.3      1 ZINC000014679203    0.0300
2      O2      0.0021   -0.0041    0.0020 O.3      1 ZINC000014679203   -0.3300
3      C3     -1.2002   -0.6374    0.0101 C.ar     1 ZINC000014679203    0.1100
4      C4     -1.8051   -0.9621    1.2143 C.ar     1 ZINC000014679203   -0.1300
5      C5     -1.1308   -0.6128    2.5160 C.3      1 ZINC000014679203   -0.1100
6      C6     -3.0318   -1.6084    1.2192 C.ar     1 ZINC000014679203    0.1100
7      O7     -3.6276   -1.9276    2.3982 O.3      1 ZINC000014679203   -0.4900
8      C8     -3.6509   -1.9285    0.0194 C.ar     1 ZINC000014679203   -0.1400
9      C9     -3.0458   -1.6037   -1.1798 C.ar     1 ZINC000014679203   -0.0600
10     C10    -3.7203   -1.9526   -2.4815 C.3      1 ZINC000014679203   -0.0700
11     C11    -3.1829   -3.2912   -2.9917 C.3      1 ZINC000014679203   -0.0800
12     C12    -3.8574   -3.6400   -4.2934 C.ar     1 ZINC000014679203   -0.0900
13     C13    -4.9731   -4.4564   -4.2967 C.ar     1 ZINC000014679203   -0.1100
14     C14    -5.5940   -4.7788   -5.4892 C.ar     1 ZINC000014679203   -0.1100
15     C15    -5.1022   -4.2858   -6.6834 C.ar     1 ZINC000014679203   -0.1400
16     C16    -3.9846   -3.4667   -6.6871 C.ar     1 ZINC000014679203    0.0800
17     O17    -3.4998   -2.9806   -7.8610 O.3      1 ZINC000014679203   -0.4900
18     C18    -3.3628   -3.1380   -5.4864 C.ar     1 ZINC000014679203    0.0800
19     O19    -2.2656   -2.3344   -5.4848 O.3      1 ZINC000014679203   -0.4800
20     C20    -1.8262   -0.9547   -1.1874 C.ar     1 ZINC000014679203   -0.0900
21     C21    -1.1693   -0.6016   -2.4969 C.3      1 ZINC000014679203   -0.0600
22     C22    -1.6179    0.7704   -2.9300 C.2      1 ZINC000014679203   -0.1600
23     C23    -0.7301    1.6974   -3.1920 C.2      1 ZINC000014679203   -0.1200
24     C24     0.7397    1.3918   -3.0603 C.3      1 ZINC000014679203   -0.1300
25     C25    -1.1786    3.0693   -3.6251 C.3      1 ZINC000014679203   -0.1200
26     H26     1.0053    1.8021    0.0021 H        1 ZINC000014679203    0.0900
27     H27    -0.5445    1.7859   -0.8732 H        1 ZINC000014679203    0.0600
28     H28    -0.5275    1.7763    0.9067 H        1 ZINC000014679203    0.0400
29     H29    -1.4475    0.3805    2.8341 H        1 ZINC000014679203    0.0700
30     H30    -1.4077   -1.3433    3.2761 H        1 ZINC000014679203    0.0700
31     H31    -0.0495   -0.6229    2.3792 H        1 ZINC000014679203    0.0700
32     H32    -4.2117   -1.2384    2.7430 H        1 ZINC000014679203    0.3900
33     H33    -4.6062   -2.4322    0.0228 H        1 ZINC000014679203    0.1300
34     H34    -4.7962   -2.0293   -2.3241 H        1 ZINC000014679203    0.0800
35     H35    -3.5152   -1.1747   -3.2169 H        1 ZINC000014679203    0.0800
36     H36    -2.1070   -3.2145   -3.1491 H        1 ZINC000014679203    0.0800
37     H37    -3.3880   -4.0691   -2.2563 H        1 ZINC000014679203    0.0800
38     H38    -5.3603   -4.8434   -3.3658 H        1 ZINC000014679203    0.1300
39     H39    -6.4649   -5.4174   -5.4877 H        1 ZINC000014679203    0.1300
40     H40    -5.5889   -4.5395   -7.6136 H        1 ZINC000014679203    0.1300
41     H41    -3.8796   -2.1303   -8.1214 H        1 ZINC000014679203    0.3900
42     H42    -2.4685   -1.3919   -5.4094 H        1 ZINC000014679203    0.3800
43     H43    -0.0864   -0.6077   -2.3734 H        1 ZINC000014679203    0.0900
44     H44    -1.4528   -1.3324   -3.2543 H        1 ZINC000014679203    0.0900
45     H45    -2.6712    0.9894   -3.0244 H        1 ZINC000014679203    0.1100
46     H46     1.0032    0.5768   -3.7344 H        1 ZINC000014679203    0.0700
47     H47     1.3196    2.2781   -3.3177 H        1 ZINC000014679203    0.0600
48     H48     0.9594    1.0995   -2.0335 H        1 ZINC000014679203    0.0800
49     H49    -1.3120    3.7019   -2.7475 H        1 ZINC000014679203    0.0700
50     H50    -0.4247    3.5086   -4.2784 H        1 ZINC000014679203    0.0600
51     H51    -2.1235    2.9898   -4.1627 H        1 ZINC000014679203    0.0600
@<TRIPOS>BOND
1     1     2     1
2     1     26    1
3     1     27    1
4     1     28    1
5     2     3     1
6     3     20    ar
7     3     4     ar
8     4     5     1
9     4     6     ar
10    5     29    1
11    5     30    1
12    5     31    1
13    6     7     1
14    6     8     ar
15    7     32    1
16    8     9     ar
17    8     33    1
18    9     10    1
19    9     20    ar
20    10    11    1
21    10    34    1
22    10    35    1
23    11    12    1
24    11    36    1
25    11    37    1
26    12    18    ar
27    12    13    ar
28    13    14    ar
29    13    38    1
30    14    15    ar
31    14    39    1
32    15    16    ar
33    15    40    1
34    16    17    1
35    16    18    ar
36    17    41    1
37    18    19    1
38    19    42    1
39    20    21    1
40    21    22    1
41    21    43    1
42    21    44    1
43    22    23    2
44    22    45    1
45    23    24    1
46    23    25    1
47    24    46    1
48    24    47    1
49    24    48    1
50    25    49    1
51    25    50    1
52    25    51    1
@<TRIPOS>SUBSTRUCTURE
1   ZINC000014679203 1     RESIDUE    1   A     ZIN   1


@<TRIPOS>MOLECULE
C1=CC2=C(C=C(C(=C2N=C1)O)N=NC3=CC4=C(C=C3)C=C(C=C4)S(=O)(=O)O)S(=O)(=O)O
  42   45    0    0    0
SMALL
NO_CHARGES
@<TRIPOS>ATOM
   1 O1             0.0021    -0.0041     0.0020 O.2     
   2 C2            -0.0145     1.2152     0.0087 C.2     
   3 C3            -1.2776     1.9874     0.0312 C.2     
   4 N4            -2.3444     1.5582     0.6891 N.2     
   5 N5            -2.2993     0.4408     1.3322 N.pl3   
   6 C6            -3.4209    -0.0105     2.0239 C.ar    
   7 C7            -3.3635    -1.2033     2.7137 C.ar    
   8 C8            -4.4964    -1.6545     3.4096 C.ar    
   9 C9            -4.4772    -2.8646     4.1248 C.ar    
  10 C10           -5.5934    -3.2723     4.7889 C.ar    
  11 C11           -6.7577    -2.5073     4.7710 C.ar    
  12 S12           -8.1800    -3.0716     5.6447 S.o2    
  13 O13           -9.3405    -2.5662     4.9277 O.co2   
  14 O14           -8.1258    -4.5252     5.6400 O.co2   
  15 O15           -8.0895    -2.5262     6.9902 O.co2   
  16 C16           -6.8130    -1.3301     4.0891 C.ar    
  17 C17           -5.6814    -0.8760     3.3916 C.ar    
  18 C18           -5.7056     0.3352     2.6771 C.ar    
  19 C19           -4.5950     0.7548     2.0167 C.ar    
  20 C20           -1.2873     3.2555    -0.7136 C.2     
  21 C21           -0.1202     3.8944    -0.9492 C.2     
  22 S22           -0.1309     5.4161    -1.8375 S.o2    
  23 O23            0.8648     5.2938    -2.8909 O.co2   
  24 O24           -1.4738     5.5803    -2.3721 O.co2   
  25 O25            0.2086     6.4608    -0.8839 O.co2   
  26 C26            1.1484     3.3473    -0.4809 C.ar    
  27 C27            2.3182     4.1240    -0.4939 C.ar    
  28 C28            3.4793     3.5533    -0.0447 C.ar    
  29 C29            3.4775     2.2387     0.4075 C.ar    
  30 N30            2.3776     1.5187     0.4172 N.ar    
  31 C31            1.2243     2.0196     0.0012 C.ar    
  32 H32           -1.4842    -0.0852     1.3340 H       
  33 H33           -2.4542    -1.7860     2.7183 H       
  34 H34           -3.5817    -3.4678     4.1470 H       
  35 H35           -5.5762    -4.2025     5.3374 H       
  36 H36           -7.7229    -0.7483     4.0842 H       
  37 H37           -6.6042     0.9341     2.6584 H       
  38 H38           -4.6203     1.6860     1.4703 H       
  39 H39           -2.2183     3.6722    -1.0686 H       
  40 H40            2.3026     5.1441    -0.8481 H       
  41 H41            4.3960     4.1242    -0.0421 H       
  42 H42            4.3997     1.7994     0.7581 H       
@<TRIPOS>BOND
   1    1    2 2
   2    2   31 1
   3    2    3 1
   4    3    4 2
   5    3   20 1
   6    4    5 1
   7    5    6 1
   8    5   32 1
   9    6   19 ar
  10    6    7 ar
  11    7    8 ar
  12    7   33 1
  13    8   17 ar
  14    8    9 ar
  15    9   10 ar
  16    9   34 1
  17   10   11 ar
  18   10   35 1
  19   11   12 1
  20   11   16 ar
  21   12   13 ar
  22   12   14 ar
  23   12   15 ar
  24   16   17 ar
  25   16   36 1
  26   17   18 ar
  27   18   19 ar
  28   18   37 1
  29   19   38 1
  30   20   21 2
  31   20   39 1
  32   21   22 1
  33   21   26 1
  34   22   23 ar
  35   22   24 ar
  36   22   25 ar
  37   26   31 ar
  38   26   27 ar
  39   27   28 ar
  40   27   40 1
  41   28   29 ar
  42   28   41 1
  43   29   30 ar
  44   29   42 1
  45   30   31 ar


@<TRIPOS>MOLECULE
C1CCC(CC1)CNC2COC3C2OCC3N4C(=NN=N4)C5=CC=CC(=C5)CN6CCCC6
71    76    1     0     0
SMALL
USER_CHARGES
@<TRIPOS>ATOM
1      C1     -0.3527    1.1603   -1.0170 C.ar     1 ZINC000004259675   -0.1000
2      C2      0.7660    1.9736   -1.0013 C.ar     1 ZINC000004259675   -0.0600
3      C3      2.0139    1.4383   -0.7357 C.ar     1 ZINC000004259675   -0.1500
4      C4      3.2274    2.3317   -0.7200 C.3      1 ZINC000004259675    0.0500
5      N5      3.4335    2.8540    0.6375 N.4      1 ZINC000004259675   -0.3900
6      H6      2.5934    3.3041    0.9687 H        1 ZINC000004259675    0.4300
7      C7      3.8212    1.7532    1.5563 C.3      1 ZINC000004259675   -0.0100
8      C8      4.5268    2.4945    2.7196 C.3      1 ZINC000004259675   -0.1400
9      C9      5.2930    3.6249    1.9950 C.3      1 ZINC000004259675   -0.1500
10     C10     4.5629    3.8088    0.6506 C.3      1 ZINC000004259675   -0.0100
11     C11     2.1494    0.0885   -0.4848 C.ar     1 ZINC000004259675   -0.0400
12     C12     1.0250   -0.7370   -0.4993 C.ar     1 ZINC000004259675   -0.0400
13     C13     1.1634   -2.1860   -0.2304 C.2      1 ZINC000004259675    0.2900
14     N14     2.2067   -2.9378   -0.5114 N.2      1 ZINC000004259675   -0.3000
15     N15     1.9981   -4.1511   -0.1459 N.2      1 ZINC000004259675   -0.0100
16     N16     0.8295   -4.2654    0.3859 N.2      1 ZINC000004259675   -0.0700
17     N17     0.2418   -2.9885    0.3571 N.pl3    1 ZINC000004259675   -0.3800
18     C18    -1.0850   -2.6085    0.8485 C.3      1 ZINC000004259675    0.1200
19     H19    -1.2141   -1.5277    0.7916 H        1 ZINC000004259675    0.1500
20     C20    -2.1796   -3.3210    0.0374 C.3      1 ZINC000004259675    0.0500
21     O21    -2.9598   -4.1044    0.9429 O.3      1 ZINC000004259675   -0.3400
22     C22    -2.2106   -4.3327    2.1454 C.3      1 ZINC000004259675    0.0400
23     H23    -1.6637   -5.2754    2.1277 H        1 ZINC000004259675    0.1300
24     C24    -1.2791   -3.0949    2.2955 C.3      1 ZINC000004259675    0.0400
25     H25    -0.3356   -3.3362    2.7850 H        1 ZINC000004259675    0.1200
26     O26    -2.0594   -2.1415    3.0430 O.3      1 ZINC000004259675   -0.3300
27     C27    -2.7192   -2.9173    4.0679 C.3      1 ZINC000004259675    0.0400
28     C28    -3.1783   -4.2247    3.3474 C.3      1 ZINC000004259675   -0.0200
29     H29    -4.2128   -4.1345    3.0161 H        1 ZINC000004259675    0.1800
30     N30    -3.0242   -5.3833    4.2373 N.4      1 ZINC000004259675   -0.5000
31     H31    -3.2231   -6.2296    3.7252 H        1 ZINC000004259675    0.4400
32     H32    -2.0780   -5.4158    4.5863 H        1 ZINC000004259675    0.4300
33     C33    -3.9580   -5.2623    5.3649 C.3      1 ZINC000004259675   -0.0100
34     C34    -3.7975   -6.4689    6.2918 C.3      1 ZINC000004259675   -0.1100
35     C35    -2.4018   -6.4487    6.9182 C.3      1 ZINC000004259675   -0.1300
36     C36    -2.2412   -7.6553    7.8451 C.3      1 ZINC000004259675   -0.1200
37     C37    -3.2973   -7.5934    8.9504 C.3      1 ZINC000004259675   -0.1300
38     C38    -4.6930   -7.6136    8.3240 C.3      1 ZINC000004259675   -0.1200
39     C39    -4.8535   -6.4070    7.3971 C.3      1 ZINC000004259675   -0.1100
40     C40    -0.2301   -0.1915   -0.7675 C.ar     1 ZINC000004259675   -0.0700
41     H41    -1.3248    1.5847   -1.2205 H        1 ZINC000004259675    0.1500
42     H42     0.6650    3.0309   -1.1974 H        1 ZINC000004259675    0.1500
43     H43     4.1035    1.7599   -1.0262 H        1 ZINC000004259675    0.1400
44     H44     3.0763    3.1621   -1.4097 H        1 ZINC000004259675    0.1400
45     H45     2.9390    1.2239    1.9163 H        1 ZINC000004259675    0.1300
46     H46     4.5095    1.0659    1.0645 H        1 ZINC000004259675    0.1300
47     H47     3.7951    2.9079    3.4137 H        1 ZINC000004259675    0.1000
48     H48     5.2185    1.8299    3.2373 H        1 ZINC000004259675    0.1200
49     H49     5.2491    4.5453    2.5773 H        1 ZINC000004259675    0.1100
50     H50     6.3293    3.3319    1.8266 H        1 ZINC000004259675    0.1100
51     H51     5.2420    3.5907   -0.1736 H        1 ZINC000004259675    0.1300
52     H52     4.1895    4.8295    0.5673 H        1 ZINC000004259675    0.1400
53     H53     3.1241   -0.3282   -0.2780 H        1 ZINC000004259675    0.1500
54     H54    -2.8144   -2.5829   -0.4529 H        1 ZINC000004259675    0.1200
55     H55    -1.7218   -3.9686   -0.7103 H        1 ZINC000004259675    0.0900
56     H56    -2.0248   -3.1466    4.8763 H        1 ZINC000004259675    0.0900
57     H57    -3.5857   -2.3792    4.4522 H        1 ZINC000004259675    0.1400
58     H58    -3.7431   -4.3480    5.9181 H        1 ZINC000004259675    0.1300
59     H59    -4.9801   -5.2271    4.9879 H        1 ZINC000004259675    0.1400
60     H60    -3.9251   -7.3871    5.7183 H        1 ZINC000004259675    0.1000
61     H61    -1.6494   -6.4928    6.1307 H        1 ZINC000004259675    0.0500
62     H62    -2.2741   -5.5305    7.4916 H        1 ZINC000004259675    0.0800
63     H63    -2.3689   -8.5735    7.2717 H        1 ZINC000004259675    0.0700
64     H64    -1.2469   -7.6409    8.2914 H        1 ZINC000004259675    0.0700
65     H65    -3.1830   -8.4530    9.6108 H        1 ZINC000004259675    0.0700
66     H66    -3.1697   -6.6752    9.5239 H        1 ZINC000004259675    0.0700
67     H67    -4.8207   -8.5318    7.7506 H        1 ZINC000004259675    0.0700
68     H68    -5.4454   -7.5695    9.1115 H        1 ZINC000004259675    0.0800
69     H69    -4.7259   -5.4888    7.9705 H        1 ZINC000004259675    0.0700
70     H70    -5.8479   -6.4213    6.9508 H        1 ZINC000004259675    0.0800
71     H71    -1.1043   -0.8255   -0.7798 H        1 ZINC000004259675    0.1400
@<TRIPOS>BOND
1     1     40    ar
2     1     2     ar
3     1     41    1
4     2     3     ar
5     2     42    1
6     3     4     1
7     3     11    ar
8     4     5     1
9     4     43    1
10    4     44    1
11    5     6     1
12    5     10    1
13    5     7     1
14    7     8     1
15    7     45    1
16    7     46    1
17    8     9     1
18    8     47    1
19    8     48    1
20    9     10    1
21    9     49    1
22    9     50    1
23    10    51    1
24    10    52    1
25    11    12    ar
26    11    53    1
27    12    13    1
28    12    40    ar
29    13    17    1
30    13    14    2
31    14    15    1
32    15    16    2
33    16    17    1
34    17    18    1
35    18    19    1
36    18    24    1
37    18    20    1
38    20    21    1
39    20    54    1
40    20    55    1
41    21    22    1
42    22    23    1
43    22    28    1
44    22    24    1
45    24    25    1
46    24    26    1
47    26    27    1
48    27    28    1
49    27    56    1
50    27    57    1
51    28    29    1
52    28    30    1
53    30    31    1
54    30    32    1
55    30    33    1
56    33    34    1
57    33    58    1
58    33    59    1
59    34    39    1
60    34    35    1
61    34    60    1
62    35    36    1
63    35    61    1
64    35    62    1
65    36    37    1
66    36    63    1
67    36    64    1
68    37    38    1
69    37    65    1
70    37    66    1
71    38    39    1
72    38    67    1
73    38    68    1
74    39    69    1
75    39    70    1
76    40    71    1
@<TRIPOS>SUBSTRUCTURE
1   ZINC000004259675 1     RESIDUE    1   A     ZIN   1


@<TRIPOS>MOLECULE
O=C1N(CCC(NC2=CC=CC=C2[N+]([O-])=O)=O)C=NC3=C1C4=C(S3)CCCCC4
49    52    1     0     0
SMALL
USER_CHARGES
@<TRIPOS>ATOM
1      O1      0.0019   -0.0030    0.0189 O.2      1 ZINC000410026391   -0.5100
2      C2     -0.0147    1.2098    0.0109 C.2      1 ZINC000410026391    0.5300
3      C3      1.2798    1.9810   -0.0108 C.3      1 ZINC000410026391   -0.1600
4      C4      2.4562    1.0027   -0.0192 C.3      1 ZINC000410026391    0.1100
5      N5      3.7146    1.7524   -0.0403 N.am     1 ZINC000410026391   -0.5400
6      C6      4.2770    2.0948   -1.2280 C.2      1 ZINC000410026391    0.3800
7      N7      5.3921    2.7594   -1.2939 N.2      1 ZINC000410026391   -0.5000
8      C8      6.0527    3.1463   -0.1797 C.2      1 ZINC000410026391    0.0700
9      C9      5.5360    2.8307    1.0673 C.2      1 ZINC000410026391   -0.2200
10     C10     6.3635    3.3171    2.1663 C.2      1 ZINC000410026391   -0.0300
11     C11     7.4528    3.9748    1.7681 C.2      1 ZINC000410026391   -0.1900
12     C12     8.4816    4.5966    2.6919 C.3      1 ZINC000410026391   -0.0500
13     C13     8.8844    3.5998    3.7765 C.3      1 ZINC000410026391   -0.1200
14     C14     7.9618    3.7691    4.9803 C.3      1 ZINC000410026391   -0.1200
15     C15     6.5660    4.1690    4.5069 C.3      1 ZINC000410026391   -0.1300
16     C16     5.9918    3.0694    3.6208 C.3      1 ZINC000410026391   -0.0600
17     S17     7.5527    4.0381    0.0138 S.3      1 ZINC000410026391    0.2000
18     C18     4.3053    2.1033    1.1190 C.2      1 ZINC000410026391    0.5600
19     O19     3.8062    1.7997    2.1888 O.2      1 ZINC000410026391   -0.5100
20     N20    -1.1910    1.8676    0.0158 N.am     1 ZINC000410026391   -0.6700
21     C21    -2.3912    1.1557   -0.0870 C.ar     1 ZINC000410026391    0.2200
22     C22    -2.4108   -0.0902   -0.6995 C.ar     1 ZINC000410026391   -0.1400
23     C23    -3.5972   -0.7907   -0.7990 C.ar     1 ZINC000410026391   -0.0400
24     C24    -4.7643   -0.2525   -0.2893 C.ar     1 ZINC000410026391   -0.1400
25     C25    -4.7481    0.9883    0.3214 C.ar     1 ZINC000410026391   -0.0300
26     C26    -3.5644    1.6913    0.4287 C.ar     1 ZINC000410026391   -0.0800
27     N27    -3.5479    3.0189    1.0828 N.pl3    1 ZINC000410026391    0.0400
28     O28    -4.5586    3.4525    1.6063 O.2      1 ZINC000410026391   -0.1400
29     O29    -2.5237    3.6779    1.0975 O.2      1 ZINC000410026391   -0.1900
30     H30     1.3176    2.6023   -0.9056 H        1 ZINC000410026391    0.1100
31     H31     1.3403    2.6144    0.8742 H        1 ZINC000410026391    0.1100
32     H32     2.4183    0.3814    0.8756 H        1 ZINC000410026391    0.1100
33     H33     2.3957    0.3693   -0.9042 H        1 ZINC000410026391    0.1100
34     H34     3.7835    1.8063   -2.1443 H        1 ZINC000410026391    0.2100
35     H35     9.3623    4.8781    2.1147 H        1 ZINC000410026391    0.0700
36     H36     8.0579    5.4862    3.1580 H        1 ZINC000410026391    0.0900
37     H37     8.7955    2.5847    3.3894 H        1 ZINC000410026391    0.0700
38     H38     9.9149    3.7865    4.0783 H        1 ZINC000410026391    0.0700
39     H39     7.9033    2.8282    5.5275 H        1 ZINC000410026391    0.0700
40     H40     8.3587    4.5447    5.6352 H        1 ZINC000410026391    0.0600
41     H41     5.9176    4.3146    5.3708 H        1 ZINC000410026391    0.0700
42     H42     6.6275    5.0975    3.9391 H        1 ZINC000410026391    0.0700
43     H43     4.9063    3.0566    3.7189 H        1 ZINC000410026391    0.0900
44     H44     6.3918    2.1058    3.9364 H        1 ZINC000410026391    0.0800
45     H45    -1.2056    2.8346    0.0905 H        1 ZINC000410026391    0.4300
46     H46    -1.4995   -0.5110   -1.0982 H        1 ZINC000410026391    0.1700
47     H47    -3.6132   -1.7597   -1.2756 H        1 ZINC000410026391    0.1500
48     H48    -5.6907   -0.8020   -0.3686 H        1 ZINC000410026391    0.1500
49     H49    -5.6616    1.4061    0.7182 H        1 ZINC000410026391    0.1600
@<TRIPOS>BOND
1     1     2     2
2     2     3     1
3     2     20    am
4     3     4     1
5     3     30    1
6     3     31    1
7     4     5     1
8     4     32    1
9     4     33    1
10    5     18    am
11    5     6     1
12    6     7     2
13    6     34    1
14    7     8     1
15    8     17    1
16    8     9     2
17    9     10    1
18    9     18    1
19    10    16    1
20    10    11    2
21    11    12    1
22    11    17    1
23    12    13    1
24    12    35    1
25    12    36    1
26    13    14    1
27    13    37    1
28    13    38    1
29    14    15    1
30    14    39    1
31    14    40    1
32    15    16    1
33    15    41    1
34    15    42    1
35    16    43    1
36    16    44    1
37    18    19    2
38    20    21    1
39    20    45    1
40    21    26    ar
41    21    22    ar
42    22    23    ar
43    22    46    1
44    23    24    ar
45    23    47    1
46    24    25    ar
47    24    48    1
48    25    26    ar
49    25    49    1
50    26    27    1
51    27    28    2
52    27    29    2
@<TRIPOS>SUBSTRUCTURE
1   ZINC000410026391 1     RESIDUE    1   A     ZIN   1


@<TRIPOS>MOLECULE
O=C1N(CC(C2=CC=C(Cl)C=C2)=O)C=NC3=C1C(CCCC4)=C4S3
39    42    1     0     0
SMALL
USER_CHARGES
@<TRIPOS>ATOM
1      O1      0.0021   -0.0041    0.0020 O.2      1 ZINC000003015164   -0.4300
2      C2     -0.0144    1.2084    0.0087 C.2      1 ZINC000003015164    0.3900
3      C3      1.2803    1.9796    0.0005 C.3      1 ZINC000003015164    0.0500
4      N4      2.4066    1.0429   -0.0153 N.am     1 ZINC000003015164   -0.5300
5      C5      2.9335    0.6004    1.1554 C.2      1 ZINC000003015164    0.3900
6      N6      3.9324   -0.2305    1.1883 N.2      1 ZINC000003015164   -0.5000
7      C7      4.5016   -0.6995    0.0557 C.2      1 ZINC000003015164    0.0700
8      C8      4.0143   -0.2894   -1.1770 C.2      1 ZINC000003015164   -0.2200
9      C9      4.7340   -0.8825   -2.2956 C.2      1 ZINC000003015164   -0.0300
10     C10     5.7206   -1.7036   -1.9280 C.2      1 ZINC000003015164   -0.2000
11     C11     6.6226   -2.4471   -2.8975 C.3      1 ZINC000003015164   -0.0400
12     C12     5.9719   -2.4379   -4.2828 C.3      1 ZINC000003015164   -0.1200
13     C13     5.5649   -1.0031   -4.6320 C.3      1 ZINC000003015164   -0.1200
14     C14     4.3868   -0.5878   -3.7491 C.3      1 ZINC000003015164   -0.0600
15     S15     5.8404   -1.8119   -0.1799 S.3      1 ZINC000003015164    0.2000
16     C16     2.9107    0.6207   -1.1915 C.2      1 ZINC000003015164    0.5600
17     O17     2.4417    1.0130   -2.2460 O.2      1 ZINC000003015164   -0.5200
18     C18    -1.2981    1.9265    0.0187 C.ar     1 ZINC000003015164   -0.1700
19     C19    -1.3209    3.3253    0.0205 C.ar     1 ZINC000003015164   -0.0600
20     C20    -2.5274    3.9914    0.0294 C.ar     1 ZINC000003015164   -0.1200
21     C21    -3.7158    3.2790    0.0370 C.ar     1 ZINC000003015164    0.0000
22     Cl22   -5.2309    4.1264    0.0482 Cl       1 ZINC000003015164   -0.0500
23     C23    -3.7009    1.8934    0.0352 C.ar     1 ZINC000003015164   -0.1200
24     C24    -2.5020    1.2139    0.0205 C.ar     1 ZINC000003015164   -0.0400
25     H25     1.3211    2.6118   -0.8866 H        1 ZINC000003015164    0.1400
26     H26     1.3381    2.6022    0.8933 H        1 ZINC000003015164    0.1400
27     H27     2.5106    0.9493    2.0859 H        1 ZINC000003015164    0.2100
28     H28     7.5928   -1.9527   -2.9462 H        1 ZINC000003015164    0.0800
29     H29     6.7511   -3.4759   -2.5611 H        1 ZINC000003015164    0.0800
30     H30     6.6832   -2.8056   -5.0224 H        1 ZINC000003015164    0.0700
31     H31     5.0884   -3.0762   -4.2753 H        1 ZINC000003015164    0.0700
32     H32     6.4061   -0.3327   -4.4561 H        1 ZINC000003015164    0.0700
33     H33     5.2703   -0.9528   -5.6802 H        1 ZINC000003015164    0.0700
34     H34     3.4996   -1.1531   -4.0343 H        1 ZINC000003015164    0.0800
35     H35     4.1975    0.4787   -3.8706 H        1 ZINC000003015164    0.0900
36     H36    -0.3953    3.8818    0.0154 H        1 ZINC000003015164    0.1400
37     H37    -2.5466    5.0712    0.0309 H        1 ZINC000003015164    0.1400
38     H38    -4.6311    1.3446    0.0415 H        1 ZINC000003015164    0.1400
39     H39    -2.4918    0.1340    0.0191 H        1 ZINC000003015164    0.1400
@<TRIPOS>BOND
1     1     2     2
2     2     3     1
3     2     18    1
4     3     4     1
5     3     25    1
6     3     26    1
7     4     16    am
8     4     5     1
9     5     6     2
10    5     27    1
11    6     7     1
12    7     15    1
13    7     8     2
14    8     9     1
15    8     16    1
16    9     14    1
17    9     10    2
18    10    11    1
19    10    15    1
20    11    12    1
21    11    28    1
22    11    29    1
23    12    13    1
24    12    30    1
25    12    31    1
26    13    14    1
27    13    32    1
28    13    33    1
29    14    34    1
30    14    35    1
31    16    17    2
32    18    24    ar
33    18    19    ar
34    19    20    ar
35    19    36    1
36    20    21    ar
37    20    37    1
38    21    22    1
39    21    23    ar
40    23    24    ar
41    23    38    1
42    24    39    1
@<TRIPOS>SUBSTRUCTURE
1   ZINC000003015164 1     RESIDUE    1   A     ZIN   1


@<TRIPOS>MOLECULE
O=C1N(CCC(NC2=C([N+]([O-])=O)C=CC=C2)=O)C=NC3=C1C(CCC4)=C4S3
43    46    1     0     0
SMALL
USER_CHARGES
@<TRIPOS>ATOM
1      O1      1.1819    5.7798    0.2582 O.2      1 ZINC000026005586   -0.5100
2      C2      2.2439    5.2231    0.0755 C.2      1 ZINC000026005586    0.5300
3      C3      3.5077    6.0341   -0.0515 C.3      1 ZINC000026005586   -0.1600
4      C4      3.1754    7.5212    0.0863 C.3      1 ZINC000026005586    0.1100
5      N5      4.4039    8.3096   -0.0371 N.am     1 ZINC000026005586   -0.5400
6      C6      5.1305    8.6064    1.0711 C.2      1 ZINC000026005586    0.3800
7      N7      6.2292    9.2982    1.0086 N.2      1 ZINC000026005586   -0.5000
8      C8      6.7024    9.7696   -0.1670 C.2      1 ZINC000026005586    0.0700
9      C9      6.0079    9.5089   -1.3369 C.2      1 ZINC000026005586   -0.2100
10     C10     6.6481   10.0869   -2.5196 C.2      1 ZINC000026005586   -0.0600
11     C11     7.7669   10.7488   -2.2547 C.2      1 ZINC000026005586   -0.2200
12     C12     8.3677   11.3183   -3.5364 C.3      1 ZINC000026005586   -0.0400
13     C13     7.2166   11.2838   -4.5613 C.3      1 ZINC000026005586   -0.1200
14     C14     6.3543   10.1269   -4.0191 C.3      1 ZINC000026005586   -0.0600
15     S15     8.1327   10.7201   -0.5303 S.3      1 ZINC000026005586    0.2300
16     C16     4.8048    8.7416   -1.2495 C.2      1 ZINC000026005586    0.5600
17     O17     4.1559    8.4841   -2.2487 O.2      1 ZINC000026005586   -0.5100
18     N18     2.2937    3.8792   -0.0140 N.am     1 ZINC000026005586   -0.6700
19     C19     1.1099    3.1332   -0.0068 C.ar     1 ZINC000026005586    0.2200
20     C20    -0.0339    3.6375   -0.6112 C.ar     1 ZINC000026005586   -0.1300
21     C21    -1.2010    2.8987   -0.6020 C.ar     1 ZINC000026005586   -0.0400
22     C22    -1.2295    1.6559    0.0033 C.ar     1 ZINC000026005586   -0.1300
23     C23    -0.0934    1.1533    0.6111 C.ar     1 ZINC000026005586   -0.0400
24     C24     1.0765    1.8869    0.6054 C.ar     1 ZINC000026005586   -0.0800
25     N25     2.2936    1.3454    1.2504 N.pl3    1 ZINC000026005586    0.0400
26     O26     2.2415    0.2947    1.8642 O.2      1 ZINC000026005586   -0.1400
27     O27     3.3474    1.9506    1.1674 O.2      1 ZINC000026005586   -0.1900
28     H28     4.2061    5.7437    0.7333 H        1 ZINC000026005586    0.1100
29     H29     3.9601    5.8517   -1.0262 H        1 ZINC000026005586    0.1100
30     H30     2.4769    7.8117   -0.6984 H        1 ZINC000026005586    0.1100
31     H31     2.7230    7.7036    1.0611 H        1 ZINC000026005586    0.1100
32     H32     4.7874    8.2537    2.0325 H        1 ZINC000026005586    0.2100
33     H33     8.7021   12.3432   -3.3759 H        1 ZINC000026005586    0.0800
34     H34     9.1976   10.6978   -3.8746 H        1 ZINC000026005586    0.0900
35     H35     6.6605   12.2213   -4.5559 H        1 ZINC000026005586    0.0800
36     H36     7.5896   11.0589   -5.5605 H        1 ZINC000026005586    0.0900
37     H37     5.2973   10.3281   -4.1931 H        1 ZINC000026005586    0.0800
38     H38     6.6429    9.1866   -4.4889 H        1 ZINC000026005586    0.0800
39     H39     3.1502    3.4292   -0.0834 H        1 ZINC000026005586    0.4300
40     H40    -0.0112    4.6064   -1.0877 H        1 ZINC000026005586    0.1600
41     H41    -2.0911    3.2903   -1.0719 H        1 ZINC000026005586    0.1500
42     H42    -2.1420    1.0782    0.0050 H        1 ZINC000026005586    0.1500
43     H43    -0.1201    0.1842    1.0870 H        1 ZINC000026005586    0.1600
@<TRIPOS>BOND
1     1     2     2
2     2     3     1
3     2     18    am
4     3     4     1
5     3     28    1
6     3     29    1
7     4     5     1
8     4     30    1
9     4     31    1
10    5     16    am
11    5     6     1
12    6     7     2
13    6     32    1
14    7     8     1
15    8     15    1
16    8     9     2
17    9     10    1
18    9     16    1
19    10    14    1
20    10    11    2
21    11    12    1
22    11    15    1
23    12    13    1
24    12    33    1
25    12    34    1
26    13    14    1
27    13    35    1
28    13    36    1
29    14    37    1
30    14    38    1
31    16    17    2
32    18    19    1
33    18    39    1
34    19    24    ar
35    19    20    ar
36    20    21    ar
37    20    40    1
38    21    22    ar
39    21    41    1
40    22    23    ar
41    22    42    1
42    23    24    ar
43    23    43    1
44    24    25    1
45    25    26    2
46    25    27    2
@<TRIPOS>SUBSTRUCTURE
1   ZINC000026005586 1     RESIDUE    1   A     ZIN   1


@<TRIPOS>MOLECULE
ClC1=C(Cl)C(C2=NC=C(N3CCC(N)(C)CC3)N=C2N)=CC=C1
43    45    1     0     0
SMALL
USER_CHARGES
@<TRIPOS>ATOM
1      C1     -0.0564    1.2708   -0.5077 C.3      1 ZINC000521836467   -0.1800
2      C2      0.0131   -0.2271   -0.2035 C.3      1 ZINC000521836467    0.0500
3      N3     -1.3466   -0.7801   -0.1469 N.4      1 ZINC000521836467   -0.6300
4      H4     -1.8045   -0.6386   -1.0349 H        1 ZINC000521836467    0.4400
5      H5     -1.2999   -1.7678    0.0537 H        1 ZINC000521836467    0.4400
6      H6     -1.8695   -0.3137    0.5792 H        1 ZINC000521836467    0.4400
7      C7      0.8100   -0.9359   -1.3021 C.3      1 ZINC000521836467   -0.1400
8      C8      2.2423   -0.3971   -1.3151 C.3      1 ZINC000521836467    0.0600
9      N9      2.8658   -0.6292   -0.0060 N.3      1 ZINC000521836467   -0.4700
10     C10     4.2081   -0.2709   -0.0233 C.ar     1 ZINC000521836467    0.3100
11     C11     4.9819   -0.4208    1.1244 C.ar     1 ZINC000521836467   -0.0100
12     N12     6.2570   -0.0823    1.1143 N.ar     1 ZINC000521836467   -0.3500
13     C13     6.8082    0.4032    0.0071 C.ar     1 ZINC000521836467    0.0300
14     C14     8.2405    0.7829   -0.0044 C.ar     1 ZINC000521836467   -0.0200
15     C15     8.6277    2.0396   -0.4675 C.ar     1 ZINC000521836467   -0.1000
16     C16     9.9630    2.3886   -0.4757 C.ar     1 ZINC000521836467   -0.1000
17     C17    10.9178    1.4949   -0.0257 C.ar     1 ZINC000521836467   -0.0900
18     C18    10.5412    0.2449    0.4354 C.ar     1 ZINC000521836467   -0.0300
19     Cl19   11.7464   -0.8707    0.9979 Cl       1 ZINC000521836467   -0.0400
20     C20     9.2066   -0.1137    0.4538 C.ar     1 ZINC000521836467   -0.0100
21     Cl21    8.7345   -1.6809    1.0324 Cl       1 ZINC000521836467   -0.0300
22     C22     6.0315    0.5552   -1.1511 C.ar     1 ZINC000521836467    0.4100
23     N23     6.6020    1.0612   -2.3104 N.pl3    1 ZINC000521836467   -0.8300
24     N24     4.7516    0.2089   -1.1361 N.ar     1 ZINC000521836467   -0.5400
25     C25     2.1453    0.0806    1.0587 C.3      1 ZINC000521836467    0.0600
26     C26     0.7101   -0.4440    1.1425 C.3      1 ZINC000521836467   -0.1300
27     H27     0.9530    1.6798   -0.5517 H        1 ZINC000521836467    0.1000
28     H28    -0.5526    1.4243   -1.4659 H        1 ZINC000521836467    0.0900
29     H29    -0.6190    1.7754    0.2778 H        1 ZINC000521836467    0.0900
30     H30     0.8263   -2.0080   -1.1058 H        1 ZINC000521836467    0.1000
31     H31     0.3423   -0.7495   -2.2688 H        1 ZINC000521836467    0.1000
32     H32     2.8163   -0.9100   -2.0868 H        1 ZINC000521836467    0.1100
33     H33     2.2261    0.6723   -1.5252 H        1 ZINC000521836467    0.0700
34     H34     4.5369   -0.8152    2.0260 H        1 ZINC000521836467    0.1700
35     H35     7.8838    2.7388   -0.8198 H        1 ZINC000521836467    0.1400
36     H36    10.2631    3.3619   -0.8348 H        1 ZINC000521836467    0.1500
37     H37    11.9613    1.7731   -0.0342 H        1 ZINC000521836467    0.1500
38     H38     7.5592    1.2118   -2.3540 H        1 ZINC000521836467    0.4200
39     H39     6.0436    1.2645   -3.0770 H        1 ZINC000521836467    0.4100
40     H40     2.6489   -0.0854    2.0110 H        1 ZINC000521836467    0.1100
41     H41     2.1296    1.1478    0.8375 H        1 ZINC000521836467    0.0600
42     H42     0.1710    0.0939    1.9224 H        1 ZINC000521836467    0.1000
43     H43     0.7248   -1.5083    1.3773 H        1 ZINC000521836467    0.1000
@<TRIPOS>BOND
1     1     2     1
2     1     27    1
3     1     28    1
4     1     29    1
5     2     26    1
6     2     3     1
7     2     7     1
8     3     4     1
9     3     5     1
10    3     6     1
11    7     8     1
12    7     30    1
13    7     31    1
14    8     9     1
15    8     32    1
16    8     33    1
17    9     10    1
18    9     25    1
19    10    24    ar
20    10    11    ar
21    11    12    ar
22    11    34    1
23    12    13    ar
24    13    14    1
25    13    22    ar
26    14    20    ar
27    14    15    ar
28    15    16    ar
29    15    35    1
30    16    17    ar
31    16    36    1
32    17    18    ar
33    17    37    1
34    18    19    1
35    18    20    ar
36    20    21    1
37    22    23    1
38    22    24    ar
39    23    38    1
40    23    39    1
41    25    26    1
42    25    40    1
43    25    41    1
44    26    42    1
45    26    43    1
@<TRIPOS>SUBSTRUCTURE
1   ZINC000521836467 1     RESIDUE    1   A     ZIN   1


@<TRIPOS>MOLECULE
O=C1C(CO)(CO)N2CCC1CC2
  28   29    0    0    0
SMALL
USER_CHARGES
NO_NAME
@<TRIPOS>ATOM
    1 O1        0.0021    -0.0041     0.0020 O.2    1 <0>      -0.4000
    2 C2       -0.0143     1.2034     0.0087 C.2    1 <0>       0.3400
    3 C3       -1.3061     2.0150     0.0319 C.3    1 <0>      -0.1400
    4 C4       -1.2420     2.9144     1.2773 C.3    1 <0>      -0.1500
    5 C5        0.0409     3.7457     1.2310 C.3    1 <0>       0.0400
    6 N6        0.7999     3.4535     0.0088 N.3    1 <0>      -0.5100
    7 C7        0.0055     3.7587    -1.1875 C.3    1 <0>       0.0400
    8 C8       -1.2783     2.9277    -1.2052 C.3    1 <0>      -0.1500
    9 C9        1.2524     2.0481     0.0011 C.3    1 <0>       0.0700
   10 C10       2.0962     1.7588     1.2442 C.3    1 <0>       0.1000
   11 O11       2.5259     0.3962     1.2217 O.3    1 <0>      -0.5400
   12 C12       2.0608     1.7611    -1.2658 C.3    1 <0>       0.1000
   13 O13       2.4909     0.3984    -1.2579 O.3    1 <0>      -0.5400
   14 H14      -2.1856     1.3711     0.0364 H      1 <0>       0.1100
   15 H15      -2.1061     3.5787     1.2917 H      1 <0>       0.0800
   16 H16      -1.2426     2.2951     2.1743 H      1 <0>       0.0700
   17 H17      -0.2159     4.8048     1.2503 H      1 <0>       0.0900
   18 H18       0.6543     3.5090     2.1004 H      1 <0>       0.0800
   19 H19      -0.2517     4.8179    -1.1879 H      1 <0>       0.0900
   20 H20       0.5932     3.5316    -2.0770 H      1 <0>       0.0800
   21 H21      -1.3051     2.3180    -2.1084 H      1 <0>       0.0700
   22 H22      -2.1423     3.5919    -1.1873 H      1 <0>       0.0800
   23 H23       2.9670     2.4143     1.2528 H      1 <0>       0.0600
   24 H24       1.4987     1.9367     2.1383 H      1 <0>       0.0500
   25 H25       3.0669     0.1418     1.9817 H      1 <0>       0.3800
   26 H26       1.4384     1.9406    -2.1424 H      1 <0>       0.0500
   27 H27       2.9311     2.4167    -1.2978 H      1 <0>       0.0600
   28 H28       3.0104     0.1455    -2.0334 H      1 <0>       0.3700
@<TRIPOS>BOND
   1    1    2 2
   2    2    9 1
   3    2    3 1
   4    3    8 1
   5    3    4 1
   6    3   14 1
   7    4    5 1
   8    4   15 1
   9    4   16 1
  10    5    6 1
  11    5   17 1
  12    5   18 1
  13    6    7 1
  14    6    9 1
  15    7    8 1
  16    7   19 1
  17    7   20 1
  18    8   21 1
  19    8   22 1
  20    9   10 1
  21    9   12 1
  22   10   11 1
  23   10   23 1
  24   10   24 1
  25   11   25 1
  26   12   13 1
  27   12   26 1
  28   12   27 1
  29   13   28 1


@<TRIPOS>MOLECULE
OCC1(COC)N2CCC(CC2)C1=O
  31   32    0    0    0
SMALL
USER_CHARGES
NO_NAME
@<TRIPOS>ATOM
    1 C1       -0.0173     1.4248     0.0099 C.3    1 <0>       0.0300
    2 O2        0.0021    -0.0041     0.0020 O.3    1 <0>      -0.3500
    3 C3        0.6518    -0.5703    -1.1379 C.3    1 <0>       0.0800
    4 C4        0.6131    -2.0967    -1.0411 C.3    1 <0>       0.0700
    5 C5       -0.8351    -2.5823    -0.9526 C.3    1 <0>       0.1000
    6 O6       -1.4548    -2.0235     0.2075 O.3    1 <0>      -0.5400
    7 C7        1.4020    -2.5658     0.1737 C.2    1 <0>       0.3400
    8 O8        1.1161    -2.2504     1.3038 O.2    1 <0>      -0.4000
    9 C9        2.5850    -3.4695    -0.1607 C.3    1 <0>      -0.1400
   10 C10       2.0195    -4.6712    -0.9355 C.3    1 <0>      -0.1500
   11 C11       1.2335    -4.1639    -2.1454 C.3    1 <0>       0.0400
   12 N12       1.2810    -2.6982    -2.2124 N.3    1 <0>      -0.5100
   13 C13       2.6654    -2.2228    -2.3256 C.3    1 <0>       0.0400
   14 C14       3.4892    -2.6788    -1.1205 C.3    1 <0>      -0.1500
   15 H15       1.0053     1.8021     0.0021 H      1 <0>       0.0400
   16 H16      -0.5445     1.7859    -0.8732 H      1 <0>       0.0400
   17 H17      -0.5275     1.7763     0.9067 H      1 <0>       0.0900
   18 H18       0.1385    -0.2506    -2.0447 H      1 <0>       0.0700
   19 H19       1.6883    -0.2344    -1.1694 H      1 <0>       0.0500
   20 H20      -1.3792    -2.2668    -1.8428 H      1 <0>       0.0600
   21 H21      -0.8500    -3.6701    -0.8841 H      1 <0>       0.0500
   22 H22      -2.3769    -2.2892     0.3274 H      1 <0>       0.3800
   23 H23       3.1226    -3.7767     0.7363 H      1 <0>       0.1100
   24 H24       2.8393    -5.3051    -1.2734 H      1 <0>       0.0800
   25 H25       1.3582    -5.2448    -0.2860 H      1 <0>       0.0700
   26 H26       1.6661    -4.5798    -3.0553 H      1 <0>       0.0900
   27 H27       0.1958    -4.4867    -2.0611 H      1 <0>       0.0800
   28 H28       3.1096    -2.6229    -3.2371 H      1 <0>       0.0900
   29 H29       2.6690    -1.1338    -2.3725 H      1 <0>       0.0800
   30 H30       3.8937    -1.8076    -0.6052 H      1 <0>       0.0700
   31 H31       4.3069    -3.3155    -1.4582 H      1 <0>       0.0800
@<TRIPOS>BOND
   1    1    2 1
   2    1   15 1
   3    1   16 1
   4    1   17 1
   5    2    3 1
   6    3    4 1
   7    3   18 1
   8    3   19 1
   9    4   12 1
  10    4    5 1
  11    4    7 1
  12    5    6 1
  13    5   20 1
  14    5   21 1
  15    6   22 1
  16    7    8 2
  17    7    9 1
  18    9   14 1
  19    9   10 1
  20    9   23 1
  21   10   11 1
  22   10   24 1
  23   10   25 1
  24   11   12 1
  25   11   26 1
  26   11   27 1
  27   12   13 1
  28   13   14 1
  29   13   28 1
  30   13   29 1
  31   14   30 1
  32   14   31 1


@<TRIPOS>MOLECULE
S=C(N1CCC1)N/N=C(C)/C2=NC=CC=C2
  30   31    0    0    0
SMALL
USER_CHARGES
NO_NAME
@<TRIPOS>ATOM
    1 C1       -0.0184     1.5028     0.0103 C.3    1 <0>      -0.1500
    2 C2        0.0021    -0.0041     0.0020 C.2    1 <0>       0.1800
    3 N3        0.0216    -0.6590     1.1224 N.2    1 <0>      -0.2700
    4 N4        0.0237     0.0349     2.3395 N.am   1 <0>      -0.5300
    5 C5        0.0440    -0.6452     3.5029 C.2    1 <0>       0.6200
    6 S6        0.0465     0.2028     4.9902 S.2    1 <0>      -0.6300
    7 N7        0.0623    -1.9928     3.4955 N.am   1 <0>      -0.5900
    8 C8        0.0735    -3.0460     2.4692 C.3    1 <0>       0.1000
    9 C9       -0.6094    -3.9699     3.4871 C.3    1 <0>      -0.1600
   10 C10       0.0864    -3.0571     4.5102 C.3    1 <0>       0.1200
   11 C11      -0.0001    -0.7342    -1.2786 C.ar   1 <0>       0.1600
   12 C12       0.0131    -2.1307    -1.2804 C.ar   1 <0>      -0.1300
   13 C13       0.0103    -2.8008    -2.4907 C.ar   1 <0>      -0.0800
   14 C14      -0.0055    -2.0554    -3.6615 C.ar   1 <0>      -0.1500
   15 C15      -0.0180    -0.6741    -3.5876 C.ar   1 <0>       0.1100
   16 N16      -0.0202    -0.0585    -2.4235 N.ar   1 <0>      -0.4600
   17 H17       1.0042     1.8801     0.0026 H      1 <0>       0.0900
   18 H18      -0.5455     1.8639    -0.8728 H      1 <0>       0.1000
   19 H19      -0.5286     1.8543     0.9071 H      1 <0>       0.0700
   20 H20       0.0105     1.0048     2.3448 H      1 <0>       0.4200
   21 H21      -0.5497    -2.8165     1.6048 H      1 <0>       0.0900
   22 H22       1.0762    -3.3714     2.1920 H      1 <0>       0.0900
   23 H23      -1.6974    -3.9036     3.4913 H      1 <0>       0.1000
   24 H24      -0.2380    -4.9946     3.4802 H      1 <0>       0.1000
   25 H25       1.0911    -3.3874     4.7740 H      1 <0>       0.1000
   26 H26      -0.5279    -2.8359     5.3830 H      1 <0>       0.1000
   27 H27       0.0256    -2.6795    -0.3504 H      1 <0>       0.1400
   28 H28       0.0206    -3.8803    -2.5239 H      1 <0>       0.1400
   29 H29      -0.0076    -2.5495    -4.6218 H      1 <0>       0.1400
   30 H30      -0.0299    -0.0924    -4.4975 H      1 <0>       0.1700
@<TRIPOS>BOND
   1    1    2 1
   2    1   17 1
   3    1   18 1
   4    1   19 1
   5    2    3 2
   6    2   11 1
   7    3    4 1
   8    4    5 am
   9    4   20 1
  10    5    6 2
  11    5    7 am
  12    7   10 1
  13    7    8 1
  14    8    9 1
  15    8   21 1
  16    8   22 1
  17    9   10 1
  18    9   23 1
  19    9   24 1
  20   10   25 1
  21   10   26 1
  22   11   16 ar
  23   11   12 ar
  24   12   13 ar
  25   12   27 1
  26   13   14 ar
  27   13   28 1
  28   14   15 ar
  29   14   29 1
  30   15   16 ar
  31   15   30 1


@<TRIPOS>MOLECULE
S=C(N(C)C)N/N=C(C)/C1=NC=CC=C1
29    29    1     0     0
SMALL
USER_CHARGES
@<TRIPOS>ATOM
1      C1     -1.0213    2.1131    0.3537 C.3      1 ZINC000005648660   -0.0900
2      C2     -1.1813    0.6648   -0.0312 C.2      1 ZINC000005648660    0.1900
3      N3     -0.9664   -0.2673    0.8460 N.2      1 ZINC000005648660   -0.2600
4      N4     -1.1265   -1.6132    0.4915 N.am     1 ZINC000005648660   -0.5400
5      C5     -1.0253   -2.5742    1.4310 C.2      1 ZINC000005648660    0.5800
6      S6     -1.3321   -4.2079    1.0211 S.2      1 ZINC000005648660   -0.6300
7      N7     -0.6826   -2.2492    2.6933 N.am     1 ZINC000005648660   -0.5500
8      C8     -0.6042   -3.2893    3.7220 C.3      1 ZINC000005648660    0.0900
9      C9     -0.3885   -0.8557    3.0367 C.3      1 ZINC000005648660    0.0600
10     C10    -1.5819    0.3069   -1.4040 C.ar     1 ZINC000005648660    0.1000
11     C11    -2.7156   -0.4816   -1.6119 C.ar     1 ZINC000005648660   -0.1600
12     C12    -3.0782   -0.8083   -2.9064 C.ar     1 ZINC000005648660   -0.0600
13     C13    -2.2974   -0.3372   -3.9529 C.ar     1 ZINC000005648660   -0.1500
14     C14    -1.1869    0.4397   -3.6759 C.ar     1 ZINC000005648660    0.1100
15     N15    -0.8644    0.7417   -2.4353 N.ar     1 ZINC000005648660   -0.4500
16     H16     0.0056    2.4273    0.1672 H        1 ZINC000005648660    0.1000
17     H17    -1.7017    2.7240   -0.2396 H        1 ZINC000005648660    0.0900
18     H18    -1.2522    2.2354    1.4119 H        1 ZINC000005648660    0.0900
19     H19    -1.3102   -1.8535   -0.4301 H        1 ZINC000005648660    0.4200
20     H20     0.1377   -4.0330    3.4309 H        1 ZINC000005648660    0.0800
21     H21    -0.3147   -2.8398    4.6719 H        1 ZINC000005648660    0.0800
22     H22    -1.5771   -3.7690    3.8286 H        1 ZINC000005648660    0.0800
23     H23    -1.3208   -0.3236    3.2261 H        1 ZINC000005648660    0.0700
24     H24     0.2351   -0.8255    3.9302 H        1 ZINC000005648660    0.0700
25     H25     0.1390   -0.3811    2.2093 H        1 ZINC000005648660    0.1100
26     H26    -3.3005   -0.8317   -0.7743 H        1 ZINC000005648660    0.1400
27     H27    -3.9496   -1.4167   -3.0986 H        1 ZINC000005648660    0.1500
28     H28    -2.5544   -0.5754   -4.9744 H        1 ZINC000005648660    0.1500
29     H29    -0.5779    0.8069   -4.4888 H        1 ZINC000005648660    0.1700
@<TRIPOS>BOND
1     1     2     1
2     1     16    1
3     1     17    1
4     1     18    1
5     2     3     2
6     2     10    1
7     3     4     1
8     4     5     am
9     4     19    1
10    5     6     2
11    5     7     am
12    7     8     1
13    7     9     1
14    8     20    1
15    8     21    1
16    8     22    1
17    9     23    1
18    9     24    1
19    9     25    1
20    10    15    ar
21    10    11    ar
22    11    12    ar
23    11    26    1
24    12    13    ar
25    12    27    1
26    13    14    ar
27    13    28    1
28    14    15    ar
29    14    29    1
@<TRIPOS>SUBSTRUCTURE
1   ZINC000005648660 1     RESIDUE    1   A     ZIN   1


@<TRIPOS>MOLECULE
S=C(N/N=C1C(N=CC=C2)=C2CCC\1)N(CC3)CCN3C4=NC=CC=C4
48    51    1     0     0
SMALL
USER_CHARGES
@<TRIPOS>ATOM
1      S1      0.0523    0.0188   -0.1727 S.2      1 ZINC000114475331   -0.6300
2      C2     -0.0243    1.7226   -0.0244 C.2      1 ZINC000114475331    0.5900
3      N3      1.1110    2.4421    0.0751 N.am     1 ZINC000114475331   -0.5200
4      N4      1.0475    3.8326    0.2336 N.2      1 ZINC000114475331   -0.2500
5      C5      2.1407    4.5303    0.2873 C.2      1 ZINC000114475331    0.1700
6      C6      2.1073    6.0439    0.2490 C.3      1 ZINC000114475331   -0.0600
7      C7      3.2351    6.5048   -0.6838 C.3      1 ZINC000114475331   -0.1200
8      C8      4.5808    6.0976   -0.0893 C.3      1 ZINC000114475331   -0.0900
9      C9      4.6245    4.6240    0.2022 C.ar     1 ZINC000114475331   -0.0900
10     C10     5.8516    3.9863    0.2902 C.ar     1 ZINC000114475331   -0.0700
11     C11     5.8766    2.6261    0.5639 C.ar     1 ZINC000114475331   -0.1500
12     C12     4.6857    1.9460    0.7415 C.ar     1 ZINC000114475331    0.1100
13     N13     3.5310    2.5729    0.6518 N.ar     1 ZINC000114475331   -0.4800
14     C14     3.4631    3.8749    0.3944 C.ar     1 ZINC000114475331    0.1100
15     N15    -1.2197    2.3450   -0.0128 N.am     1 ZINC000114475331   -0.5600
16     C16    -1.3130    3.8036   -0.1774 C.3      1 ZINC000114475331    0.0700
17     C17    -2.3301    4.1045   -1.2834 C.3      1 ZINC000114475331    0.0500
18     N18    -3.5988    3.4320   -0.9737 N.3      1 ZINC000114475331   -0.4800
19     C19    -4.5946    3.8112   -1.8663 C.ar     1 ZINC000114475331    0.3100
20     C20    -5.8752    3.2846   -1.7348 C.ar     1 ZINC000114475331   -0.1900
21     C21    -6.8568    3.6711   -2.6299 C.ar     1 ZINC000114475331   -0.0500
22     C22    -6.5230    4.5745   -3.6299 C.ar     1 ZINC000114475331   -0.2000
23     C23    -5.2315    5.0573   -3.7017 C.ar     1 ZINC000114475331    0.1300
24     N24    -4.3168    4.6749   -2.8311 N.ar     1 ZINC000114475331   -0.5200
25     C25    -3.4372    1.9720   -0.9545 C.3      1 ZINC000114475331    0.0500
26     C26    -2.4659    1.5829    0.1588 C.3      1 ZINC000114475331    0.1000
27     H27     1.9721    1.9971    0.0370 H        1 ZINC000114475331    0.4400
28     H28     1.1459    6.3835   -0.1363 H        1 ZINC000114475331    0.1000
29     H29     2.2682    6.4434    1.2502 H        1 ZINC000114475331    0.1000
30     H30     3.1128    6.0376   -1.6609 H        1 ZINC000114475331    0.0700
31     H31     3.1980    7.5889   -0.7913 H        1 ZINC000114475331    0.0900
32     H32     5.3730    6.3455   -0.7958 H        1 ZINC000114475331    0.0900
33     H33     4.7439    6.6496    0.8364 H        1 ZINC000114475331    0.0900
34     H34     6.7699    4.5366    0.1482 H        1 ZINC000114475331    0.1500
35     H35     6.8185    2.1029    0.6373 H        1 ZINC000114475331    0.1500
36     H36     4.7028    0.8877    0.9562 H        1 ZINC000114475331    0.1700
37     H37    -1.6433    4.2571    0.7571 H        1 ZINC000114475331    0.0800
38     H38    -0.3385    4.2035   -0.4574 H        1 ZINC000114475331    0.1600
39     H39    -2.4940    5.1804   -1.3438 H        1 ZINC000114475331    0.1000
40     H40    -1.9486    3.7402   -2.2372 H        1 ZINC000114475331    0.0500
41     H41    -6.1002    2.5833   -0.9449 H        1 ZINC000114475331    0.1400
42     H42    -7.8599    3.2786   -2.5527 H        1 ZINC000114475331    0.1400
43     H43    -7.2661    4.8961   -4.3447 H        1 ZINC000114475331    0.1400
44     H44    -4.9676    5.7602   -4.4780 H        1 ZINC000114475331    0.1600
45     H45    -4.4041    1.5013   -0.7764 H        1 ZINC000114475331    0.1000
46     H46    -3.0403    1.6374   -1.9129 H        1 ZINC000114475331    0.0600
47     H47    -2.2545    0.5151    0.1037 H        1 ZINC000114475331    0.1300
48     H48    -2.9043    1.8227    1.1276 H        1 ZINC000114475331    0.0900
@<TRIPOS>BOND
1     1     2     2
2     2     3     am
3     2     15    am
4     3     4     1
5     3     27    1
6     4     5     2
7     5     14    1
8     5     6     1
9     6     7     1
10    6     28    1
11    6     29    1
12    7     8     1
13    7     30    1
14    7     31    1
15    8     9     1
16    8     32    1
17    8     33    1
18    9     14    ar
19    9     10    ar
20    10    11    ar
21    10    34    1
22    11    12    ar
23    11    35    1
24    12    13    ar
25    12    36    1
26    13    14    ar
27    15    26    1
28    15    16    1
29    16    17    1
30    16    37    1
31    16    38    1
32    17    18    1
33    17    39    1
34    17    40    1
35    18    19    1
36    18    25    1
37    19    24    ar
38    19    20    ar
39    20    21    ar
40    20    41    1
41    21    22    ar
42    21    42    1
43    22    23    ar
44    22    43    1
45    23    24    ar
46    23    44    1
47    25    26    1
48    25    45    1
49    25    46    1
50    26    47    1
51    26    48    1
@<TRIPOS>SUBSTRUCTURE
1   ZINC000114475331 1     RESIDUE    1   A     ZIN   1


@<TRIPOS>MOLECULE
CNCC1=CC2=C(C=C1)N(CC)C3=CC=CC=C32
  37   39    0    0    0
SMALL
USER_CHARGES
NO_NAME
@<TRIPOS>ATOM
    1 C1       -0.0187     1.5258     0.0104 C.3    1 <0>      -0.1700
    2 C2        0.0021    -0.0041     0.0020 C.3    1 <0>       0.1000
    3 N3       -1.3723    -0.5112     0.0124 N.pl3  1 <0>      -0.5000
    4 C4       -2.1054    -0.7853     1.1532 C.ar   1 <0>       0.1400
    5 C5       -3.3703    -1.2507     0.7648 C.ar   1 <0>      -0.1100
    6 C6       -4.3114    -1.6015     1.7300 C.ar   1 <0>      -0.0600
    7 C7       -3.9953    -1.4897     3.0667 C.ar   1 <0>      -0.1400
    8 C8       -2.7454    -1.0298     3.4525 C.ar   1 <0>      -0.0700
    9 C9       -1.8051    -0.6794     2.5080 C.ar   1 <0>      -0.1400
   10 C10      -3.3817    -1.2501    -0.7096 C.ar   1 <0>      -0.1000
   11 C11      -2.1250    -0.7788    -1.1171 C.ar   1 <0>       0.1800
   12 C12      -1.8460    -0.6707    -2.4763 C.ar   1 <0>      -0.1400
   13 C13      -2.7991    -1.0247    -3.4065 C.ar   1 <0>      -0.0600
   14 C14      -4.0410    -1.4900    -3.0018 C.ar   1 <0>      -0.2100
   15 C15      -5.0718    -1.8724    -4.0325 C.3    1 <0>       0.0500
   16 N16      -4.9219    -3.2939    -4.3710 N.4    1 <0>      -0.5100
   17 H17      -3.9981    -3.4554    -4.7433 H      1 <0>       0.4300
   18 H18      -5.0526    -3.8529    -3.5412 H      1 <0>       0.4300
   19 C19      -5.9268    -3.6667    -5.3757 C.3    1 <0>      -0.0500
   20 C20      -4.3377    -1.5997    -1.6605 C.ar   1 <0>      -0.0300
   21 H21       1.0039     1.9031     0.0027 H      1 <0>       0.0800
   22 H22      -0.5459     1.8868    -0.8726 H      1 <0>       0.0600
   23 H23      -0.5289     1.8773     0.9072 H      1 <0>       0.0600
   24 H24       0.5123    -0.3556    -0.8948 H      1 <0>       0.0900
   25 H25       0.5293    -0.3651     0.8851 H      1 <0>       0.0900
   26 H26      -5.2857    -1.9596     1.4318 H      1 <0>       0.1300
   27 H27      -4.7239    -1.7609     3.8164 H      1 <0>       0.1300
   28 H28      -2.5067    -0.9455     4.5024 H      1 <0>       0.1400
   29 H29      -0.8344    -0.3228     2.8193 H      1 <0>       0.1300
   30 H30      -0.8821    -0.3087    -2.8022 H      1 <0>       0.1300
   31 H31      -2.5769    -0.9387    -4.4599 H      1 <0>       0.1400
   32 H32      -6.0698    -1.6979    -3.6303 H      1 <0>       0.1300
   33 H33      -4.9307    -1.2685    -4.9289 H      1 <0>       0.1400
   34 H34      -5.8155    -4.7215    -5.6269 H      1 <0>       0.1200
   35 H35      -6.9247    -3.4922    -4.9735 H      1 <0>       0.1200
   36 H36      -5.7856    -3.0628    -6.2721 H      1 <0>       0.1200
   37 H37      -5.3057    -1.9623    -1.3476 H      1 <0>       0.1300
@<TRIPOS>BOND
   1    1    2 1
   2    1   21 1
   3    1   22 1
   4    1   23 1
   5    2    3 1
   6    2   24 1
   7    2   25 1
   8    3   11 1
   9    3    4 1
  10    4    9 ar
  11    4    5 ar
  12    5    6 ar
  13    5   10 1
  14    6    7 ar
  15    6   26 1
  16    7    8 ar
  17    7   27 1
  18    8    9 ar
  19    8   28 1
  20    9   29 1
  21   10   20 ar
  22   10   11 ar
  23   11   12 ar
  24   12   13 ar
  25   12   30 1
  26   13   14 ar
  27   13   31 1
  28   14   15 1
  29   14   20 ar
  30   15   16 1
  31   15   32 1
  32   15   33 1
  33   16   17 1
  34   16   18 1
  35   16   19 1
  36   19   34 1
  37   19   35 1
  38   19   36 1
  39   20   37 1


@<TRIPOS>MOLECULE
CC(OCN1C(C=CC1=O)=O)=O
  19   19    0    0    0
SMALL
USER_CHARGES
NO_NAME
@<TRIPOS>ATOM
    1 C1       -0.0184     1.5028     0.0103 C.3    1 <0>      -0.1400
    2 C2        0.0021    -0.0041     0.0020 C.2    1 <0>       0.4300
    3 O3        1.0565    -0.5939    -0.0112 O.2    1 <0>      -0.4600
    4 O4       -1.1511    -0.6910     0.0093 O.3    1 <0>      -0.3600
    5 C5       -1.0555    -2.1398     0.0006 C.3    1 <0>       0.2900
    6 N6       -0.7710    -2.6185     1.3557 N.am   1 <0>      -0.6000
    7 C7        0.4192    -2.5287     1.9760 C.2    1 <0>       0.5200
    8 O8        1.4281    -2.0406     1.5094 O.2    1 <0>      -0.4000
    9 C9        0.2899    -3.1251     3.3239 C.2    1 <0>      -0.1400
   10 C10      -0.9806    -3.5447     3.4424 C.2    1 <0>      -0.1400
   11 C11      -1.6615    -3.2101     2.1721 C.2    1 <0>       0.5500
   12 O12      -2.8245    -3.4377     1.9085 O.2    1 <0>      -0.4500
   13 H13       1.0042     1.8801     0.0026 H      1 <0>       0.1000
   14 H14      -0.5455     1.8639    -0.8728 H      1 <0>       0.1000
   15 H15      -0.5286     1.8543     0.9071 H      1 <0>       0.1000
   16 H16      -1.9984    -2.5641    -0.3441 H      1 <0>       0.1500
   17 H17      -0.2524    -2.4469    -0.6693 H      1 <0>       0.1100
   18 H18       1.0674    -3.2076     4.0689 H      1 <0>       0.1800
   19 H19      -1.4213    -4.0292     4.3011 H      1 <0>       0.1900
@<TRIPOS>BOND
   1    1    2 1
   2    1   13 1
   3    1   14 1
   4    1   15 1
   5    2    3 2
   6    2    4 1
   7    4    5 1
   8    5    6 1
   9    5   16 1
  10    5   17 1
  11    6   11 am
  12    6    7 am
  13    7    8 2
  14    7    9 1
  15    9   10 2
  16    9   18 1
  17   10   11 1
  18   10   19 1
  19   11   12 2


@<TRIPOS>MOLECULE
OCC(S1)=CC=C1C2=CC=C(C3=CC=C(CO)S3)O2
31    33    1     0     0
SMALL
USER_CHARGES
@<TRIPOS>ATOM
1      O1     -0.0173    1.4248    0.0099 O.3      1 ZINC000000006846   -0.5700
2      C2      0.0021   -0.0041    0.0020 C.3      1 ZINC000000006846    0.1500
3      C3     -1.4117   -0.5257    0.0127 C.2      1 ZINC000000006846   -0.1900
4      C4     -2.1392   -0.7900   -1.0762 C.2      1 ZINC000000006846   -0.1100
5      C5     -3.4120   -1.2605   -0.8317 C.2      1 ZINC000000006846   -0.1100
6      C6     -3.7236   -1.3803    0.4891 C.2      1 ZINC000000006846   -0.1300
7      C7     -5.0086   -1.8568    1.0194 C.2      1 ZINC000000006846    0.0700
8      C8     -5.3332   -1.9756    2.3404 C.2      1 ZINC000000006846   -0.1800
9      C9     -6.6467   -2.4634    2.3971 C.2      1 ZINC000000006846   -0.1800
10     C10    -7.0691   -2.6219    1.1083 C.2      1 ZINC000000006846    0.0700
11     C11    -8.3897   -3.1128    0.6905 C.2      1 ZINC000000006846   -0.1300
12     C12    -8.7992   -3.2724   -0.5991 C.2      1 ZINC000000006846   -0.1100
13     C13   -10.0858   -3.7495   -0.7330 C.2      1 ZINC000000006846   -0.1100
14     C14   -10.7292   -3.9806    0.4148 C.2      1 ZINC000000006846   -0.1900
15     C15   -12.1388   -4.5017    0.5259 C.3      1 ZINC000000006846    0.1500
16     O16   -12.1167   -5.9299    0.5688 O.3      1 ZINC000000006846   -0.5700
17     S17    -9.6867   -3.5938    1.7768 S.3      1 ZINC000000006846    0.1900
18     O18    -6.0701   -2.2457    0.2843 O.3      1 ZINC000000006846   -0.1500
19     S19    -2.3439   -0.8831    1.4600 S.3      1 ZINC000000006846    0.1900
20     H20     0.8606    1.8301    0.0037 H        1 ZINC000000006846    0.3900
21     H21     0.5123   -0.3556   -0.8948 H        1 ZINC000000006846    0.0700
22     H22     0.5293   -0.3651    0.8851 H        1 ZINC000000006846    0.0600
23     H23    -1.7579   -0.6453   -2.0762 H        1 ZINC000000006846    0.1500
24     H24    -4.1043   -1.5126   -1.6214 H        1 ZINC000000006846    0.1500
25     H25    -4.6985   -1.7395    3.1817 H        1 ZINC000000006846    0.1600
26     H26    -7.2159   -2.6741    3.2904 H        1 ZINC000000006846    0.1600
27     H27    -8.1688   -3.0439   -1.4457 H        1 ZINC000000006846    0.1500
28     H28   -10.5411   -3.9236   -1.6968 H        1 ZINC000000006846    0.1500
29     H29   -12.5973   -4.1179    1.4372 H        1 ZINC000000006846    0.0600
30     H30   -12.7168   -4.1731   -0.3378 H        1 ZINC000000006846    0.0700
31     H31   -12.9919   -6.3348    0.6403 H        1 ZINC000000006846    0.3900
@<TRIPOS>BOND
1     1     2     1
2     1     20    1
3     2     3     1
4     2     21    1
5     2     22    1
6     3     19    1
7     3     4     2
8     4     5     1
9     4     23    1
10    5     6     2
11    5     24    1
12    6     7     1
13    6     19    1
14    7     18    1
15    7     8     2
16    8     9     1
17    8     25    1
18    9     10    2
19    9     26    1
20    10    11    1
21    10    18    1
22    11    17    1
23    11    12    2
24    12    13    1
25    12    27    1
26    13    14    2
27    13    28    1
28    14    15    1
29    14    17    1
30    15    16    1
31    15    29    1
32    15    30    1
33    16    31    1
@<TRIPOS>SUBSTRUCTURE
1   ZINC000000006846 1     RESIDUE    1   A     ZIN   1


@<TRIPOS>MOLECULE
CC(C)OC(C=C(OC)C=C1)=C1C2=NC(C3=CC=C(Cl)C=C3)C(C4=CC=C(Cl)C=C4)N2C(N5CCN(C(C)=O)CC5)=O
76    80    1     0     0
SMALL
USER_CHARGES
@<TRIPOS>ATOM
1      C1      1.9390   -1.9275   -1.9872 C.3      1 ZINC000028467946    0.0300
2      O2      0.7286   -1.3763   -2.5099 O.3      1 ZINC000028467946   -0.3100
3      C3     -0.4352   -1.8267   -1.9751 C.ar     1 ZINC000028467946    0.1900
4      C4     -0.4083   -2.6940   -0.8886 C.ar     1 ZINC000028467946   -0.2500
5      C5     -1.5846   -3.1551   -0.3407 C.ar     1 ZINC000028467946    0.0100
6      C6     -2.8091   -2.7512   -0.8763 C.ar     1 ZINC000028467946   -0.1200
7      C7     -4.0723   -3.2433   -0.2910 C.2      1 ZINC000028467946    0.4500
8      N8     -4.3457   -4.5003   -0.1629 N.2      1 ZINC000028467946   -0.5100
9      C9     -5.6697   -4.6714    0.4501 C.3      1 ZINC000028467946    0.1000
10     H10    -6.3379   -5.2034   -0.2271 H        1 ZINC000028467946    0.1200
11     C11    -5.5534   -5.4071    1.7602 C.ar     1 ZINC000028467946   -0.0600
12     C12    -4.4934   -5.1449    2.6081 C.ar     1 ZINC000028467946   -0.0700
13     C13    -4.3862   -5.8193    3.8097 C.ar     1 ZINC000028467946   -0.1100
14     C14    -5.3399   -6.7569    4.1640 C.ar     1 ZINC000028467946   -0.0300
15     Cl15   -5.2062   -7.6039    5.6734 Cl       1 ZINC000028467946   -0.0700
16     C16    -6.4005   -7.0188    3.3151 C.ar     1 ZINC000028467946   -0.1100
17     C17    -6.5097   -6.3397    2.1162 C.ar     1 ZINC000028467946   -0.0900
18     C18    -6.1686   -3.2311    0.6793 C.3      1 ZINC000028467946    0.1300
19     H19    -7.0817   -3.0460    0.1137 H        1 ZINC000028467946    0.1200
20     C20    -6.3934   -2.9738    2.1471 C.ar     1 ZINC000028467946   -0.0900
21     C21    -5.3842   -2.4226    2.9144 C.ar     1 ZINC000028467946   -0.0900
22     C22    -5.5897   -2.1864    4.2606 C.ar     1 ZINC000028467946   -0.1000
23     C23    -6.8058   -2.5017    4.8402 C.ar     1 ZINC000028467946   -0.0300
24     Cl24   -7.0650   -2.2048    6.5308 Cl       1 ZINC000028467946   -0.0600
25     C25    -7.8154   -3.0533    4.0717 C.ar     1 ZINC000028467946   -0.1000
26     C26    -7.6106   -3.2838    2.7244 C.ar     1 ZINC000028467946   -0.1000
27     N27    -5.0612   -2.4035    0.1723 N.am     1 ZINC000028467946   -0.5800
28     C28    -5.0251   -1.0563    0.1562 C.2      1 ZINC000028467946    0.7400
29     O29    -3.9838   -0.4791   -0.0894 O.2      1 ZINC000028467946   -0.5400
30     N30    -6.1433   -0.3491    0.4126 N.am     1 ZINC000028467946   -0.6100
31     C31    -7.3763   -1.0270    0.8368 C.3      1 ZINC000028467946    0.0200
32     C32    -7.8432   -0.4112    2.1616 C.3      1 ZINC000028467946    0.1000
33     N33    -7.8513    1.0518    2.0224 N.am     1 ZINC000028467946   -0.6100
34     C34    -8.9693    1.7592    2.2796 C.2      1 ZINC000028467946    0.5100
35     C35    -8.9953    3.2449    2.0290 C.3      1 ZINC000028467946   -0.1800
36     O36    -9.9545    1.1999    2.7127 O.2      1 ZINC000028467946   -0.5400
37     C37    -6.6183    1.7298    1.5981 C.3      1 ZINC000028467946    0.0900
38     C38    -6.1499    1.1145    0.2787 C.3      1 ZINC000028467946    0.1200
39     C39    -2.8350   -1.8765   -1.9712 C.ar     1 ZINC000028467946    0.2400
40     O40    -4.0213   -1.4793   -2.4974 O.3      1 ZINC000028467946   -0.3000
41     C41    -3.9700   -0.6320   -3.6470 C.3      1 ZINC000028467946    0.0700
42     C42    -3.9751   -1.4901   -4.9137 C.3      1 ZINC000028467946   -0.1800
43     C43    -5.1881    0.2937   -3.6531 C.3      1 ZINC000028467946   -0.1500
44     C44    -1.6468   -1.4154   -2.5110 C.ar     1 ZINC000028467946   -0.2500
45     H45     2.7868   -1.5496   -2.5585 H        1 ZINC000028467946    0.1000
46     H46     2.0478   -1.6391   -0.9417 H        1 ZINC000028467946    0.0600
47     H47     1.9056   -3.0144   -2.0627 H        1 ZINC000028467946    0.0600
48     H48     0.5381   -3.0073   -0.4733 H        1 ZINC000028467946    0.1300
49     H49    -1.5598   -3.8293    0.5027 H        1 ZINC000028467946    0.1300
50     H50    -3.7488   -4.4133    2.3312 H        1 ZINC000028467946    0.1200
51     H51    -3.5579   -5.6147    4.4719 H        1 ZINC000028467946    0.1300
52     H52    -7.1452   -7.7508    3.5910 H        1 ZINC000028467946    0.1300
53     H53    -7.3378   -6.5437    1.4536 H        1 ZINC000028467946    0.1300
54     H54    -4.4348   -2.1769    2.4620 H        1 ZINC000028467946    0.1300
55     H55    -4.8011   -1.7562    4.8601 H        1 ZINC000028467946    0.1300
56     H56    -8.7648   -3.2998    4.5236 H        1 ZINC000028467946    0.1400
57     H57    -8.3988   -3.7140    2.1243 H        1 ZINC000028467946    0.1400
58     H58    -8.1476   -0.8917    0.0786 H        1 ZINC000028467946    0.0700
59     H59    -7.1798   -2.0900    0.9767 H        1 ZINC000028467946    0.1500
60     H60    -8.8487   -0.7621    2.3939 H        1 ZINC000028467946    0.1000
61     H61    -7.1591   -0.6989    2.9600 H        1 ZINC000028467946    0.0800
62     H62    -9.3665    3.4372    1.0223 H        1 ZINC000028467946    0.1000
63     H63    -9.6510    3.7246    2.7557 H        1 ZINC000028467946    0.0900
64     H64    -7.9873    3.6477    2.1277 H        1 ZINC000028467946    0.0800
65     H65    -6.8149    2.7927    1.4582 H        1 ZINC000028467946    0.1000
66     H66    -5.8470    1.5945    2.3563 H        1 ZINC000028467946    0.0800
67     H67    -5.1444    1.4662    0.0476 H        1 ZINC000028467946    0.1100
68     H68    -6.8330    1.4003   -0.5212 H        1 ZINC000028467946    0.0700
69     H69    -3.0592   -0.0338   -3.6170 H        1 ZINC000028467946    0.0800
70     H70    -3.9359   -0.8438   -5.7905 H        1 ZINC000028467946    0.0700
71     H71    -3.1073   -2.1496   -4.9093 H        1 ZINC000028467946    0.0600
72     H72    -4.8858   -2.0882   -4.9436 H        1 ZINC000028467946    0.0700
73     H73    -5.1845    0.9050   -2.7507 H        1 ZINC000028467946    0.0600
74     H74    -5.1489    0.9400   -4.5299 H        1 ZINC000028467946    0.0800
75     H75    -6.0989   -0.3044   -3.6830 H        1 ZINC000028467946    0.0600
76     H76    -1.6629   -0.7411   -3.3545 H        1 ZINC000028467946    0.1400
@<TRIPOS>BOND
1     1     2     1
2     1     45    1
3     1     46    1
4     1     47    1
5     2     3     1
6     3     44    ar
7     3     4     ar
8     4     5     ar
9     4     48    1
10    5     6     ar
11    5     49    1
12    6     7     1
13    6     39    ar
14    7     27    1
15    7     8     2
16    8     9     1
17    9     10    1
18    9     11    1
19    9     18    1
20    11    17    ar
21    11    12    ar
22    12    13    ar
23    12    50    1
24    13    14    ar
25    13    51    1
26    14    15    1
27    14    16    ar
28    16    17    ar
29    16    52    1
30    17    53    1
31    18    19    1
32    18    20    1
33    18    27    1
34    20    26    ar
35    20    21    ar
36    21    22    ar
37    21    54    1
38    22    23    ar
39    22    55    1
40    23    24    1
41    23    25    ar
42    25    26    ar
43    25    56    1
44    26    57    1
45    27    28    am
46    28    29    2
47    28    30    am
48    30    38    1
49    30    31    1
50    31    32    1
51    31    58    1
52    31    59    1
53    32    33    1
54    32    60    1
55    32    61    1
56    33    34    am
57    33    37    1
58    34    35    1
59    34    36    2
60    35    62    1
61    35    63    1
62    35    64    1
63    37    38    1
64    37    65    1
65    37    66    1
66    38    67    1
67    38    68    1
68    39    40    1
69    39    44    ar
70    40    41    1
71    41    42    1
72    41    43    1
73    41    69    1
74    42    70    1
75    42    71    1
76    42    72    1
77    43    73    1
78    43    74    1
79    43    75    1
80    44    76    1
@<TRIPOS>SUBSTRUCTURE
1   ZINC000028467946 1     RESIDUE    1   A     ZIN   1


@<TRIPOS>MOLECULE
CCOC(C=C(OC)C=C1)=C1C2=NC(C3=CC=C(Br)C=C3)C(C4=CC=C(Br)C=C4)N2C(N5CCN(CCO)CC5)=O
75    79    1     0     0
SMALL
USER_CHARGES
@<TRIPOS>ATOM
1      C1     -4.2481   -3.9405    4.1545 C.3      1 ZINC000028467964   -0.1500
2      C2     -2.9928   -3.6517    3.3287 C.3      1 ZINC000028467964    0.0600
3      O3     -3.3228   -2.7718    2.2522 O.3      1 ZINC000028467964   -0.3000
4      C4     -2.3140   -2.4135    1.4179 C.ar     1 ZINC000028467964    0.2400
5      C5     -1.0354   -2.9013    1.6250 C.ar     1 ZINC000028467964   -0.2500
6      C6     -0.0057   -2.5344    0.7708 C.ar     1 ZINC000028467964    0.1900
7      O7      1.2474   -3.0149    0.9765 O.3      1 ZINC000028467964   -0.3100
8      C8      2.2353   -2.6912   -0.0039 C.3      1 ZINC000028467964    0.0300
9      C9     -0.2523   -1.6766   -0.2954 C.ar     1 ZINC000028467964   -0.2500
10     C10    -1.5207   -1.1855   -0.5107 C.ar     1 ZINC000028467964    0.0000
11     C11    -2.5649   -1.5531    0.3402 C.ar     1 ZINC000028467964   -0.1200
12     C12    -3.9262   -1.0283    0.1123 C.2      1 ZINC000028467964    0.4500
13     N13    -4.1938    0.2355    0.0620 N.2      1 ZINC000028467964   -0.5100
14     C14    -5.6287    0.4408   -0.1765 C.3      1 ZINC000028467964    0.0900
15     H15    -6.0798    0.9834    0.6543 H        1 ZINC000028467964    0.1200
16     C16    -5.8476    1.1823   -1.4701 C.ar     1 ZINC000028467964   -0.0500
17     C17    -5.0580    0.9016   -2.5696 C.ar     1 ZINC000028467964   -0.0800
18     C18    -5.2587    1.5811   -3.7563 C.ar     1 ZINC000028467964   -0.0900
19     C19    -6.2498    2.5421   -3.8438 C.ar     1 ZINC000028467964   -0.0800
20     Br20   -6.5253    3.4717   -5.4673 Br       1 ZINC000028467964   -0.0500
21     C21    -7.0396    2.8226   -2.7434 C.ar     1 ZINC000028467964   -0.0900
22     C22    -6.8417    2.1389   -1.5586 C.ar     1 ZINC000028467964   -0.1000
23     C23    -6.2047   -0.9862   -0.2651 C.3      1 ZINC000028467964    0.1300
24     H24    -6.9386   -1.1541    0.5231 H        1 ZINC000028467964    0.1200
25     C25    -6.8179   -1.2285   -1.6202 C.ar     1 ZINC000028467964   -0.0700
26     C26    -6.0540   -1.7691   -2.6377 C.ar     1 ZINC000028467964   -0.0900
27     C27    -6.6161   -1.9920   -3.8806 C.ar     1 ZINC000028467964   -0.0800
28     C28    -7.9432   -1.6740   -4.1063 C.ar     1 ZINC000028467964   -0.0800
29     Br29   -8.7131   -1.9792   -5.8063 Br       1 ZINC000028467964   -0.0500
30     C30    -8.7072   -1.1331   -3.0879 C.ar     1 ZINC000028467964   -0.0800
31     C31    -8.1457   -0.9155   -1.8438 C.ar     1 ZINC000028467964   -0.1000
32     N32    -5.0224   -1.8422   -0.0713 N.am     1 ZINC000028467964   -0.5800
33     C33    -5.0153   -3.1900   -0.0663 C.2      1 ZINC000028467964    0.7300
34     O34    -3.9596   -3.7923   -0.0897 O.2      1 ZINC000028467964   -0.5500
35     N35    -6.1785   -3.8699   -0.0353 N.am     1 ZINC000028467964   -0.6100
36     C36    -7.4676   -3.1626   -0.0731 C.3      1 ZINC000028467964    0.0400
37     C37    -8.3303   -3.7817   -1.1779 C.3      1 ZINC000028467964    0.0500
38     N38    -8.4237   -5.2325   -0.9667 N.3      1 ZINC000028467964   -0.5200
39     C39    -9.3799   -5.8401   -1.9019 C.3      1 ZINC000028467964    0.0600
40     C40    -9.7517   -7.2412   -1.4125 C.3      1 ZINC000028467964    0.0800
41     O41   -10.4496   -7.1420   -0.1695 O.3      1 ZINC000028467964   -0.5600
42     C42    -7.1056   -5.8723   -1.0718 C.3      1 ZINC000028467964    0.0400
43     C43    -6.1926   -5.3391    0.0312 C.3      1 ZINC000028467964    0.1400
44     H44    -3.9964   -4.6117    4.9756 H        1 ZINC000028467964    0.0800
45     H45    -4.6416   -3.0067    4.5560 H        1 ZINC000028467964    0.0600
46     H46    -5.0006   -4.4088    3.5200 H        1 ZINC000028467964    0.0600
47     H47    -2.2404   -3.1833    3.9632 H        1 ZINC000028467964    0.0600
48     H48    -2.5993   -4.5855    2.9271 H        1 ZINC000028467964    0.0700
49     H49    -0.8391   -3.5675    2.4521 H        1 ZINC000028467964    0.1400
50     H50     1.8870   -3.0049   -0.9880 H        1 ZINC000028467964    0.0600
51     H51     2.4068   -1.6148   -0.0053 H        1 ZINC000028467964    0.0600
52     H52     3.1656   -3.2071    0.2337 H        1 ZINC000028467964    0.1000
53     H53     0.5536   -1.3944   -0.9566 H        1 ZINC000028467964    0.1300
54     H54    -1.7085   -0.5192   -1.3397 H        1 ZINC000028467964    0.1300
55     H55    -4.2840    0.1516   -2.5011 H        1 ZINC000028467964    0.1200
56     H56    -4.6416    1.3621   -4.6151 H        1 ZINC000028467964    0.1300
57     H57    -7.8136    3.5728   -2.8112 H        1 ZINC000028467964    0.1300
58     H58    -7.4583    2.3578   -0.6993 H        1 ZINC000028467964    0.1300
59     H59    -5.0177   -2.0171   -2.4615 H        1 ZINC000028467964    0.1200
60     H60    -6.0191   -2.4140   -4.6755 H        1 ZINC000028467964    0.1300
61     H61    -9.7435   -0.8847   -3.2636 H        1 ZINC000028467964    0.1400
62     H62    -8.7421   -0.4931   -1.0486 H        1 ZINC000028467964    0.1400
63     H63    -7.9716   -3.2683    0.8876 H        1 ZINC000028467964    0.0700
64     H64    -7.2999   -2.1071   -0.2876 H        1 ZINC000028467964    0.1400
65     H65    -9.3284   -3.3448   -1.1479 H        1 ZINC000028467964    0.0800
66     H66    -7.8753   -3.5841   -2.1485 H        1 ZINC000028467964    0.0400
67     H67   -10.2774   -5.2239   -1.9554 H        1 ZINC000028467964    0.0800
68     H68    -8.9270   -5.9090   -2.8909 H        1 ZINC000028467964    0.0500
69     H69   -10.3908   -7.7261   -2.1504 H        1 ZINC000028467964    0.0500
70     H70    -8.8450   -7.8302   -1.2741 H        1 ZINC000028467964    0.0400
71     H71   -10.7169   -7.9944    0.2007 H        1 ZINC000028467964    0.3800
72     H72    -7.2155   -6.9514   -0.9648 H        1 ZINC000028467964    0.0900
73     H73    -6.6676   -5.6455   -2.0438 H        1 ZINC000028467964    0.0400
74     H74    -5.1827   -5.7234   -0.1117 H        1 ZINC000028467964    0.1000
75     H75    -6.5723   -5.6521    1.0039 H        1 ZINC000028467964    0.0800
@<TRIPOS>BOND
1     1     2     1
2     1     44    1
3     1     45    1
4     1     46    1
5     2     3     1
6     2     47    1
7     2     48    1
8     3     4     1
9     4     11    ar
10    4     5     ar
11    5     6     ar
12    5     49    1
13    6     7     1
14    6     9     ar
15    7     8     1
16    8     50    1
17    8     51    1
18    8     52    1
19    9     10    ar
20    9     53    1
21    10    11    ar
22    10    54    1
23    11    12    1
24    12    32    1
25    12    13    2
26    13    14    1
27    14    15    1
28    14    16    1
29    14    23    1
30    16    22    ar
31    16    17    ar
32    17    18    ar
33    17    55    1
34    18    19    ar
35    18    56    1
36    19    20    1
37    19    21    ar
38    21    22    ar
39    21    57    1
40    22    58    1
41    23    24    1
42    23    25    1
43    23    32    1
44    25    31    ar
45    25    26    ar
46    26    27    ar
47    26    59    1
48    27    28    ar
49    27    60    1
50    28    29    1
51    28    30    ar
52    30    31    ar
53    30    61    1
54    31    62    1
55    32    33    am
56    33    34    2
57    33    35    am
58    35    43    1
59    35    36    1
60    36    37    1
61    36    63    1
62    36    64    1
63    37    38    1
64    37    65    1
65    37    66    1
66    38    39    1
67    38    42    1
68    39    40    1
69    39    67    1
70    39    68    1
71    40    41    1
72    40    69    1
73    40    70    1
74    41    71    1
75    42    43    1
76    42    72    1
77    42    73    1
78    43    74    1
79    43    75    1
@<TRIPOS>SUBSTRUCTURE
1   ZINC000028467964 1     RESIDUE    1   A     ZIN   1


@<TRIPOS>MOLECULE
CC(C)OC(C=C(OC)C=C1)=C1C2=NC(C3=CC=C(Cl)C=C3)C(C4=CC=C(Cl)C=C4)N2C(N5CCNC(C5)=O)=O
70    74    1     0     0
SMALL
USER_CHARGES
@<TRIPOS>ATOM
1      C1      0.3151    0.9360    0.8078 C.3      1 ZINC000015965747    0.0300
2      O2      1.5717    0.8120    0.1388 O.3      1 ZINC000015965747   -0.3100
3      C3      1.6240   -0.0324   -0.9231 C.ar     1 ZINC000015965747    0.1900
4      C4      0.4830   -0.7234   -1.3154 C.ar     1 ZINC000015965747   -0.2600
5      C5      0.5281   -1.5816   -2.3915 C.ar     1 ZINC000015965747    0.0100
6      C6      1.7225   -1.7594   -3.0924 C.ar     1 ZINC000015965747   -0.1300
7      C7      1.7744   -2.6784   -4.2470 C.2      1 ZINC000015965747    0.4500
8      N8      1.5003   -3.9385   -4.1561 N.2      1 ZINC000015965747   -0.5100
9      C9      1.6402   -4.5838   -5.4684 C.3      1 ZINC000015965747    0.1000
10     H10     0.6882   -5.0067   -5.7890 H        1 ZINC000015965747    0.1200
11     C11     2.7013   -5.6529   -5.4201 C.ar     1 ZINC000015965747   -0.0800
12     C12     3.8524   -5.4510   -4.6817 C.ar     1 ZINC000015965747   -0.0800
13     C13     4.8259   -6.4311   -4.6370 C.ar     1 ZINC000015965747   -0.1100
14     C14     4.6482   -7.6144   -5.3315 C.ar     1 ZINC000015965747   -0.0300
15     Cl15    5.8703   -8.8461   -5.2755 Cl       1 ZINC000015965747   -0.0700
16     C16     3.4960   -7.8158   -6.0704 C.ar     1 ZINC000015965747   -0.1100
17     C17     2.5206   -6.8373   -6.1097 C.ar     1 ZINC000015965747   -0.0900
18     C18     2.0661   -3.4390   -6.4085 C.3      1 ZINC000015965747    0.1300
19     H19     3.0475   -3.6395   -6.8383 H        1 ZINC000015965747    0.1200
20     C20     1.0429   -3.2362   -7.4962 C.ar     1 ZINC000015965747   -0.1100
21     C21    -0.1102   -2.5198   -7.2353 C.ar     1 ZINC000015965747   -0.0900
22     C22    -1.0490   -2.3335   -8.2325 C.ar     1 ZINC000015965747   -0.1000
23     C23    -0.8344   -2.8642   -9.4920 C.ar     1 ZINC000015965747   -0.0300
24     Cl24   -2.0127   -2.6301  -10.7452 Cl       1 ZINC000015965747   -0.0600
25     C25     0.3199   -3.5810   -9.7526 C.ar     1 ZINC000015965747   -0.1000
26     C26     1.2605   -3.7619   -8.7562 C.ar     1 ZINC000015965747   -0.0900
27     N27     2.1135   -2.2677   -5.5175 N.am     1 ZINC000015965747   -0.5800
28     C28     2.4406   -1.0117   -5.8806 C.2      1 ZINC000015965747    0.7400
29     O29     2.5316   -0.1397   -5.0386 O.2      1 ZINC000015965747   -0.5300
30     N30     2.6669   -0.7225   -7.1774 N.am     1 ZINC000015965747   -0.6200
31     C31     2.9170    0.6590   -7.6220 C.3      1 ZINC000015965747    0.1100
32     C32     4.3158    0.7163   -8.2389 C.3      1 ZINC000015965747    0.0900
33     N33     4.5187   -0.3912   -9.1627 N.am     1 ZINC000015965747   -0.7200
34     C34     3.8265   -1.5312   -9.1419 C.2      1 ZINC000015965747    0.5100
35     O35     4.1408   -2.4130   -9.9129 O.2      1 ZINC000015965747   -0.5400
36     C36     2.6801   -1.7743   -8.2049 C.3      1 ZINC000015965747    0.0400
37     C37     2.8720   -1.0619   -2.6964 C.ar     1 ZINC000015965747    0.2500
38     O38     4.0368   -1.2293   -3.3726 O.3      1 ZINC000015965747   -0.2900
39     C39     5.1465   -0.4282   -2.9617 C.3      1 ZINC000015965747    0.0800
40     C40     6.4507   -1.1136   -3.3740 C.3      1 ZINC000015965747   -0.1500
41     C41     5.0589    0.9455   -3.6297 C.3      1 ZINC000015965747   -0.1700
42     C42     2.8141   -0.1982   -1.6163 C.ar     1 ZINC000015965747   -0.2600
43     H43    -0.4354    1.3006    0.1065 H        1 ZINC000015965747    0.0600
44     H44     0.0106   -0.0374    1.1923 H        1 ZINC000015965747    0.0600
45     H45     0.4117    1.6394    1.6348 H        1 ZINC000015965747    0.1000
46     H46    -0.4416   -0.5869   -0.7742 H        1 ZINC000015965747    0.1300
47     H47    -0.3600   -2.1172   -2.6929 H        1 ZINC000015965747    0.1300
48     H48     3.9912   -4.5271   -4.1399 H        1 ZINC000015965747    0.1300
49     H49     5.7253   -6.2731   -4.0604 H        1 ZINC000015965747    0.1300
50     H50     3.3568   -8.7392   -6.6130 H        1 ZINC000015965747    0.1400
51     H51     1.6210   -6.9946   -6.6861 H        1 ZINC000015965747    0.1400
52     H52    -0.2778   -2.1060   -6.2519 H        1 ZINC000015965747    0.1300
53     H53    -1.9500   -1.7742   -8.0284 H        1 ZINC000015965747    0.1400
54     H54     0.4878   -3.9958  -10.7356 H        1 ZINC000015965747    0.1400
55     H55     2.1618   -4.3211   -8.9595 H        1 ZINC000015965747    0.1400
56     H56     2.1746    0.9458   -8.3668 H        1 ZINC000015965747    0.0800
57     H57     2.8633    1.3354   -6.7689 H        1 ZINC000015965747    0.1200
58     H58     4.4328    1.6576   -8.7760 H        1 ZINC000015965747    0.0900
59     H59     5.0606    0.6623   -7.4449 H        1 ZINC000015965747    0.0700
60     H60     5.2053   -0.2928   -9.8409 H        1 ZINC000015965747    0.4000
61     H61     2.7956   -2.7497   -7.7323 H        1 ZINC000015965747    0.1600
62     H62     1.7424   -1.7442   -8.7598 H        1 ZINC000015965747    0.1100
63     H63     5.1261   -0.3075   -1.8786 H        1 ZINC000015965747    0.0700
64     H64     6.4711   -1.2343   -4.4571 H        1 ZINC000015965747    0.0600
65     H65     7.2972   -0.5026   -3.0605 H        1 ZINC000015965747    0.0800
66     H66     6.5131   -2.0923   -2.8981 H        1 ZINC000015965747    0.0600
67     H67     5.9053    1.5565   -3.3162 H        1 ZINC000015965747    0.0600
68     H68     5.0792    0.8247   -4.7128 H        1 ZINC000015965747    0.0600
69     H69     4.1297    1.4337   -3.3359 H        1 ZINC000015965747    0.0700
70     H70     3.6977    0.3412   -1.3085 H        1 ZINC000015965747    0.1400
@<TRIPOS>BOND
1     1     2     1
2     1     43    1
3     1     44    1
4     1     45    1
5     2     3     1
6     3     42    ar
7     3     4     ar
8     4     5     ar
9     4     46    1
10    5     6     ar
11    5     47    1
12    6     7     1
13    6     37    ar
14    7     27    1
15    7     8     2
16    8     9     1
17    9     10    1
18    9     11    1
19    9     18    1
20    11    17    ar
21    11    12    ar
22    12    13    ar
23    12    48    1
24    13    14    ar
25    13    49    1
26    14    15    1
27    14    16    ar
28    16    17    ar
29    16    50    1
30    17    51    1
31    18    19    1
32    18    20    1
33    18    27    1
34    20    26    ar
35    20    21    ar
36    21    22    ar
37    21    52    1
38    22    23    ar
39    22    53    1
40    23    24    1
41    23    25    ar
42    25    26    ar
43    25    54    1
44    26    55    1
45    27    28    am
46    28    29    2
47    28    30    am
48    30    36    1
49    30    31    1
50    31    32    1
51    31    56    1
52    31    57    1
53    32    33    1
54    32    58    1
55    32    59    1
56    33    34    am
57    33    60    1
58    34    35    2
59    34    36    1
60    36    61    1
61    36    62    1
62    37    38    1
63    37    42    ar
64    38    39    1
65    39    40    1
66    39    41    1
67    39    63    1
68    40    64    1
69    40    65    1
70    40    66    1
71    41    67    1
72    41    68    1
73    41    69    1
74    42    70    1
@<TRIPOS>SUBSTRUCTURE
1   ZINC000015965747 1     RESIDUE    1   A     ZIN   1


@<TRIPOS>MOLECULE
CC(C)OC(C=C(OC)C=C1)=C1C2=N[C@@H](C3=CC=C(Cl)C=C3)[C@@H](C4=CC=C(Cl)C=C4)N2C(N5CCNC(C5)=O)=O
70    74    1     0     0
SMALL
USER_CHARGES
@<TRIPOS>ATOM
1      C1      0.3151    0.9360    0.8078 C.3      1 ZINC000015965747    0.0300
2      O2      1.5717    0.8120    0.1388 O.3      1 ZINC000015965747   -0.3100
3      C3      1.6240   -0.0324   -0.9231 C.ar     1 ZINC000015965747    0.1900
4      C4      0.4830   -0.7234   -1.3154 C.ar     1 ZINC000015965747   -0.2600
5      C5      0.5281   -1.5816   -2.3915 C.ar     1 ZINC000015965747    0.0100
6      C6      1.7225   -1.7594   -3.0924 C.ar     1 ZINC000015965747   -0.1300
7      C7      1.7744   -2.6784   -4.2470 C.2      1 ZINC000015965747    0.4500
8      N8      1.5003   -3.9385   -4.1561 N.2      1 ZINC000015965747   -0.5100
9      C9      1.6402   -4.5838   -5.4684 C.3      1 ZINC000015965747    0.1000
10     H10     0.6882   -5.0067   -5.7890 H        1 ZINC000015965747    0.1200
11     C11     2.7013   -5.6529   -5.4201 C.ar     1 ZINC000015965747   -0.0800
12     C12     3.8524   -5.4510   -4.6817 C.ar     1 ZINC000015965747   -0.0800
13     C13     4.8259   -6.4311   -4.6370 C.ar     1 ZINC000015965747   -0.1100
14     C14     4.6482   -7.6144   -5.3315 C.ar     1 ZINC000015965747   -0.0300
15     Cl15    5.8703   -8.8461   -5.2755 Cl       1 ZINC000015965747   -0.0700
16     C16     3.4960   -7.8158   -6.0704 C.ar     1 ZINC000015965747   -0.1100
17     C17     2.5206   -6.8373   -6.1097 C.ar     1 ZINC000015965747   -0.0900
18     C18     2.0661   -3.4390   -6.4085 C.3      1 ZINC000015965747    0.1300
19     H19     3.0475   -3.6395   -6.8383 H        1 ZINC000015965747    0.1200
20     C20     1.0429   -3.2362   -7.4962 C.ar     1 ZINC000015965747   -0.1100
21     C21    -0.1102   -2.5198   -7.2353 C.ar     1 ZINC000015965747   -0.0900
22     C22    -1.0490   -2.3335   -8.2325 C.ar     1 ZINC000015965747   -0.1000
23     C23    -0.8344   -2.8642   -9.4920 C.ar     1 ZINC000015965747   -0.0300
24     Cl24   -2.0127   -2.6301  -10.7452 Cl       1 ZINC000015965747   -0.0600
25     C25     0.3199   -3.5810   -9.7526 C.ar     1 ZINC000015965747   -0.1000
26     C26     1.2605   -3.7619   -8.7562 C.ar     1 ZINC000015965747   -0.0900
27     N27     2.1135   -2.2677   -5.5175 N.am     1 ZINC000015965747   -0.5800
28     C28     2.4406   -1.0117   -5.8806 C.2      1 ZINC000015965747    0.7400
29     O29     2.5316   -0.1397   -5.0386 O.2      1 ZINC000015965747   -0.5300
30     N30     2.6669   -0.7225   -7.1774 N.am     1 ZINC000015965747   -0.6200
31     C31     2.9170    0.6590   -7.6220 C.3      1 ZINC000015965747    0.1100
32     C32     4.3158    0.7163   -8.2389 C.3      1 ZINC000015965747    0.0900
33     N33     4.5187   -0.3912   -9.1627 N.am     1 ZINC000015965747   -0.7200
34     C34     3.8265   -1.5312   -9.1419 C.2      1 ZINC000015965747    0.5100
35     O35     4.1408   -2.4130   -9.9129 O.2      1 ZINC000015965747   -0.5400
36     C36     2.6801   -1.7743   -8.2049 C.3      1 ZINC000015965747    0.0400
37     C37     2.8720   -1.0619   -2.6964 C.ar     1 ZINC000015965747    0.2500
38     O38     4.0368   -1.2293   -3.3726 O.3      1 ZINC000015965747   -0.2900
39     C39     5.1465   -0.4282   -2.9617 C.3      1 ZINC000015965747    0.0800
40     C40     6.4507   -1.1136   -3.3740 C.3      1 ZINC000015965747   -0.1500
41     C41     5.0589    0.9455   -3.6297 C.3      1 ZINC000015965747   -0.1700
42     C42     2.8141   -0.1982   -1.6163 C.ar     1 ZINC000015965747   -0.2600
43     H43    -0.4354    1.3006    0.1065 H        1 ZINC000015965747    0.0600
44     H44     0.0106   -0.0374    1.1923 H        1 ZINC000015965747    0.0600
45     H45     0.4117    1.6394    1.6348 H        1 ZINC000015965747    0.1000
46     H46    -0.4416   -0.5869   -0.7742 H        1 ZINC000015965747    0.1300
47     H47    -0.3600   -2.1172   -2.6929 H        1 ZINC000015965747    0.1300
48     H48     3.9912   -4.5271   -4.1399 H        1 ZINC000015965747    0.1300
49     H49     5.7253   -6.2731   -4.0604 H        1 ZINC000015965747    0.1300
50     H50     3.3568   -8.7392   -6.6130 H        1 ZINC000015965747    0.1400
51     H51     1.6210   -6.9946   -6.6861 H        1 ZINC000015965747    0.1400
52     H52    -0.2778   -2.1060   -6.2519 H        1 ZINC000015965747    0.1300
53     H53    -1.9500   -1.7742   -8.0284 H        1 ZINC000015965747    0.1400
54     H54     0.4878   -3.9958  -10.7356 H        1 ZINC000015965747    0.1400
55     H55     2.1618   -4.3211   -8.9595 H        1 ZINC000015965747    0.1400
56     H56     2.1746    0.9458   -8.3668 H        1 ZINC000015965747    0.0800
57     H57     2.8633    1.3354   -6.7689 H        1 ZINC000015965747    0.1200
58     H58     4.4328    1.6576   -8.7760 H        1 ZINC000015965747    0.0900
59     H59     5.0606    0.6623   -7.4449 H        1 ZINC000015965747    0.0700
60     H60     5.2053   -0.2928   -9.8409 H        1 ZINC000015965747    0.4000
61     H61     2.7956   -2.7497   -7.7323 H        1 ZINC000015965747    0.1600
62     H62     1.7424   -1.7442   -8.7598 H        1 ZINC000015965747    0.1100
63     H63     5.1261   -0.3075   -1.8786 H        1 ZINC000015965747    0.0700
64     H64     6.4711   -1.2343   -4.4571 H        1 ZINC000015965747    0.0600
65     H65     7.2972   -0.5026   -3.0605 H        1 ZINC000015965747    0.0800
66     H66     6.5131   -2.0923   -2.8981 H        1 ZINC000015965747    0.0600
67     H67     5.9053    1.5565   -3.3162 H        1 ZINC000015965747    0.0600
68     H68     5.0792    0.8247   -4.7128 H        1 ZINC000015965747    0.0600
69     H69     4.1297    1.4337   -3.3359 H        1 ZINC000015965747    0.0700
70     H70     3.6977    0.3412   -1.3085 H        1 ZINC000015965747    0.1400
@<TRIPOS>BOND
1     1     2     1
2     1     43    1
3     1     44    1
4     1     45    1
5     2     3     1
6     3     42    ar
7     3     4     ar
8     4     5     ar
9     4     46    1
10    5     6     ar
11    5     47    1
12    6     7     1
13    6     37    ar
14    7     27    1
15    7     8     2
16    8     9     1
17    9     10    1
18    9     11    1
19    9     18    1
20    11    17    ar
21    11    12    ar
22    12    13    ar
23    12    48    1
24    13    14    ar
25    13    49    1
26    14    15    1
27    14    16    ar
28    16    17    ar
29    16    50    1
30    17    51    1
31    18    19    1
32    18    20    1
33    18    27    1
34    20    26    ar
35    20    21    ar
36    21    22    ar
37    21    52    1
38    22    23    ar
39    22    53    1
40    23    24    1
41    23    25    ar
42    25    26    ar
43    25    54    1
44    26    55    1
45    27    28    am
46    28    29    2
47    28    30    am
48    30    36    1
49    30    31    1
50    31    32    1
51    31    56    1
52    31    57    1
53    32    33    1
54    32    58    1
55    32    59    1
56    33    34    am
57    33    60    1
58    34    35    2
59    34    36    1
60    36    61    1
61    36    62    1
62    37    38    1
63    37    42    ar
64    38    39    1
65    39    40    1
66    39    41    1
67    39    63    1
68    40    64    1
69    40    65    1
70    40    66    1
71    41    67    1
72    41    68    1
73    41    69    1
74    42    70    1
@<TRIPOS>SUBSTRUCTURE
1   ZINC000015965747 1     RESIDUE    1   A     ZIN   1


@<TRIPOS>MOLECULE
ClC(C=C1)=CC2=C1C(C3=C(N=CN3CC4=CC=C(Cl)C=C4)C5=CC=CC=C5)=C(C(NCCN6CCOCC6)=O)N2
69    74    1     0     0
SMALL
USER_CHARGES
@<TRIPOS>ATOM
1      O1      0.0021   -0.0041    0.0020 O.2      1 ZINC000084603293   -0.4900
2      C2     -0.0144    1.2134    0.0087 C.2      1 ZINC000084603293    0.5800
3      N3      1.1435    1.9031    0.0014 N.am     1 ZINC000084603293   -0.7300
4      C4      2.4219    1.1879   -0.0147 C.3      1 ZINC000084603293    0.1200
5      C5      3.5712    2.1979   -0.0202 C.3      1 ZINC000084603293    0.0400
6      N6      4.8532    1.4808   -0.0363 N.3      1 ZINC000084603293   -0.5300
7      C7      4.8601    0.3917    0.9512 C.3      1 ZINC000084603293    0.0100
8      C8      6.1880   -0.3647    0.8594 C.3      1 ZINC000084603293    0.0600
9      O9      7.2677    0.5521    1.0570 O.3      1 ZINC000084603293   -0.3800
10     C10     7.2918    1.6254    0.1121 C.3      1 ZINC000084603293    0.0600
11     C11     5.9751    2.4020    0.1963 C.3      1 ZINC000084603293    0.0200
12     C12    -1.2911    1.9275    0.0186 C.2      1 ZINC000084603293    0.0500
13     C13    -2.5472    1.3360    0.0269 C.2      1 ZINC000084603293    0.0000
14     C14    -2.8424   -0.1036    0.0278 C.2      1 ZINC000084603293    0.0600
15     C15    -3.0123   -0.9210   -1.0804 C.2      1 ZINC000084603293    0.0700
16     C16    -2.9301   -0.5044   -2.4989 C.ar     1 ZINC000084603293    0.0000
17     C17    -3.3733    0.7611   -2.8840 C.ar     1 ZINC000084603293   -0.1100
18     C18    -3.2936    1.1436   -4.2073 C.ar     1 ZINC000084603293   -0.1200
19     C19    -2.7755    0.2750   -5.1514 C.ar     1 ZINC000084603293   -0.1200
20     C20    -2.3343   -0.9813   -4.7758 C.ar     1 ZINC000084603293   -0.1200
21     C21    -2.4038   -1.3736   -3.4548 C.ar     1 ZINC000084603293   -0.0900
22     N22    -3.2654   -2.1618   -0.6276 N.2      1 ZINC000084603293   -0.4700
23     C23    -3.2624   -2.1611    0.6767 C.2      1 ZINC000084603293    0.2000
24     N24    -3.0007   -0.9160    1.1292 N.pl3    1 ZINC000084603293   -0.4400
25     C25    -2.9113   -0.5034    2.5320 C.3      1 ZINC000084603293    0.1500
26     C26    -4.2416    0.0448    2.9802 C.ar     1 ZINC000084603293   -0.1100
27     C27    -4.5177    1.3917    2.8365 C.ar     1 ZINC000084603293   -0.0800
28     C28    -5.7376    1.8950    3.2474 C.ar     1 ZINC000084603293   -0.1100
29     C29    -6.6825    1.0505    3.8026 C.ar     1 ZINC000084603293   -0.0200
30     Cl30   -8.2151    1.6819    4.3183 Cl       1 ZINC000084603293   -0.0600
31     C31    -6.4056   -0.2974    3.9461 C.ar     1 ZINC000084603293   -0.1100
32     C32    -5.1875   -0.8005    3.5297 C.ar     1 ZINC000084603293   -0.0800
33     C33    -3.5232    2.4354    0.0352 C.ar     1 ZINC000084603293   -0.1000
34     C34    -4.9184    2.4813    0.0448 C.ar     1 ZINC000084603293   -0.0400
35     C35    -5.5587    3.6881    0.0503 C.ar     1 ZINC000084603293   -0.1300
36     C36    -4.8311    4.8717    0.0464 C.ar     1 ZINC000084603293    0.0000
37     Cl37   -5.6657    6.3939    0.0536 Cl       1 ZINC000084603293   -0.0600
38     C38    -3.4529    4.8490    0.0374 C.ar     1 ZINC000084603293   -0.1200
39     C39    -2.7799    3.6294    0.0312 C.ar     1 ZINC000084603293    0.1300
40     N40    -1.4437    3.3012    0.0273 N.pl3    1 ZINC000084603293   -0.5700
41     H41     1.1303    2.8730    0.0067 H        1 ZINC000084603293    0.4000
42     H42     2.4967    0.5574    0.8712 H        1 ZINC000084603293    0.0800
43     H43     2.4797    0.5669   -0.9086 H        1 ZINC000084603293    0.0800
44     H44     3.4965    2.8285   -0.9062 H        1 ZINC000084603293    0.0900
45     H45     3.5135    2.8189    0.8737 H        1 ZINC000084603293    0.0400
46     H46     4.7464    0.8074    1.9523 H        1 ZINC000084603293    0.0500
47     H47     4.0367   -0.2921    0.7447 H        1 ZINC000084603293    0.0900
48     H48     6.2209   -1.1368    1.6281 H        1 ZINC000084603293    0.1000
49     H49     6.2772   -0.8255   -0.1243 H        1 ZINC000084603293    0.0600
50     H50     8.1231    2.2926    0.3402 H        1 ZINC000084603293    0.1000
51     H51     7.4131    1.2225   -0.8934 H        1 ZINC000084603293    0.0600
52     H52     5.9657    3.1856   -0.5613 H        1 ZINC000084603293    0.0900
53     H53     5.8793    2.8498    1.1854 H        1 ZINC000084603293    0.0500
54     H54    -3.7782    1.4398   -2.1480 H        1 ZINC000084603293    0.1200
55     H55    -3.6366    2.1229   -4.5068 H        1 ZINC000084603293    0.1200
56     H56    -2.7155    0.5789   -6.1861 H        1 ZINC000084603293    0.1200
57     H57    -1.9312   -1.6550   -5.5175 H        1 ZINC000084603293    0.1200
58     H58    -2.0588   -2.3545   -3.1628 H        1 ZINC000084603293    0.1300
59     H59    -3.4384   -3.0255    1.2999 H        1 ZINC000084603293    0.2100
60     H60    -2.6466   -1.3632    3.1475 H        1 ZINC000084603293    0.1100
61     H61    -2.1472    0.2669    2.6362 H        1 ZINC000084603293    0.1000
62     H62    -3.7799    2.0508    2.4035 H        1 ZINC000084603293    0.1300
63     H63    -5.9530    2.9474    3.1354 H        1 ZINC000084603293    0.1400
64     H64    -7.1426   -0.9570    4.3797 H        1 ZINC000084603293    0.1400
65     H65    -4.9713   -1.8528    3.6414 H        1 ZINC000084603293    0.1300
66     H66    -5.4901    1.5651    0.0475 H        1 ZINC000084603293    0.1300
67     H67    -6.6382    3.7223    0.0574 H        1 ZINC000084603293    0.1400
68     H68    -2.8963    5.7744    0.0345 H        1 ZINC000084603293    0.1400
69     H69    -0.7146    3.9410    0.0293 H        1 ZINC000084603293    0.4200
@<TRIPOS>BOND
1     1     2     2
2     2     3     am
3     2     12    1
4     3     4     1
5     3     41    1
6     4     5     1
7     4     42    1
8     4     43    1
9     5     6     1
10    5     44    1
11    5     45    1
12    6     11    1
13    6     7     1
14    7     8     1
15    7     46    1
16    7     47    1
17    8     9     1
18    8     48    1
19    8     49    1
20    9     10    1
21    10    11    1
22    10    50    1
23    10    51    1
24    11    52    1
25    11    53    1
26    12    40    1
27    12    13    2
28    13    14    1
29    13    33    1
30    14    24    1
31    14    15    2
32    15    16    1
33    15    22    1
34    16    21    ar
35    16    17    ar
36    17    18    ar
37    17    54    1
38    18    19    ar
39    18    55    1
40    19    20    ar
41    19    56    1
42    20    21    ar
43    20    57    1
44    21    58    1
45    22    23    2
46    23    24    1
47    23    59    1
48    24    25    1
49    25    26    1
50    25    60    1
51    25    61    1
52    26    32    ar
53    26    27    ar
54    27    28    ar
55    27    62    1
56    28    29    ar
57    28    63    1
58    29    30    1
59    29    31    ar
60    31    32    ar
61    31    64    1
62    32    65    1
63    33    39    ar
64    33    34    ar
65    34    35    ar
66    34    66    1
67    35    36    ar
68    35    67    1
69    36    37    1
70    36    38    ar
71    38    39    ar
72    38    68    1
73    39    40    1
74    40    69    1
@<TRIPOS>SUBSTRUCTURE
1   ZINC000084603293 1     RESIDUE    1   A     ZIN   1


@<TRIPOS>MOLECULE
O=C([C@@H]1CC[C@H](C)N1C(C2=C(C(C)C)N3C(S2)=N[C@](C4=CC=C(Cl)C=C4)(C)[C@H]3C5=CC=C(Cl)C=C5)=O)N6CCN(C)[C@H](C)C6
85    90    1     0     0
SMALL
USER_CHARGES
@<TRIPOS>ATOM
1      C1      0.2317    1.6716    1.3423 C.3      1 ZINC000096908708   -0.1500
2      C2      0.2361    0.2453    0.7887 C.3      1 ZINC000096908708   -0.0800
3      C3      1.1218   -0.6402    1.6675 C.3      1 ZINC000096908708   -0.1600
4      C4     -1.1701   -0.2967    0.7854 C.2      1 ZINC000096908708    0.2500
5      C5     -1.6703   -0.8935   -0.3050 C.2      1 ZINC000096908708   -0.3100
6      C6     -0.9941   -1.1093   -1.5870 C.2      1 ZINC000096908708    0.6400
7      O7      0.1045   -0.6242   -1.7849 O.2      1 ZINC000096908708   -0.5100
8      N8     -1.5888   -1.8450   -2.5470 N.am     1 ZINC000096908708   -0.6000
9      C9     -2.8584   -2.5729   -2.4058 C.3      1 ZINC000096908708    0.1200
10     H10    -3.6584   -1.8771   -2.1530 H        1 ZINC000096908708    0.0800
11     C11    -2.7296   -3.6365   -1.3135 C.3      1 ZINC000096908708   -0.1800
12     C12    -3.1556   -3.2435   -3.7635 C.3      1 ZINC000096908708   -0.1200
13     C13    -2.3257   -2.3923   -4.7606 C.3      1 ZINC000096908708   -0.1200
14     C14    -1.0772   -2.0480   -3.9147 C.3      1 ZINC000096908708    0.1200
15     H15    -0.3685   -2.8760   -3.9299 H        1 ZINC000096908708    0.1000
16     C16    -0.4248   -0.7911   -4.4300 C.2      1 ZINC000096908708    0.5200
17     O17    -0.7644    0.2898   -3.9971 O.2      1 ZINC000096908708   -0.5100
18     N18     0.5360   -0.8680   -5.3721 N.am     1 ZINC000096908708   -0.6100
19     C19     0.8808   -2.1548   -5.9953 C.3      1 ZINC000096908708    0.1100
20     C20     0.8490   -1.9825   -7.5176 C.3      1 ZINC000096908708    0.0400
21     N21     1.7129   -0.8569   -7.8979 N.3      1 ZINC000096908708   -0.5400
22     C22     1.8461   -0.7654   -9.3580 C.3      1 ZINC000096908708    0.0200
23     C23     1.2205    0.4070   -7.3340 C.3      1 ZINC000096908708    0.0700
24     H24     0.1935    0.5745   -7.6586 H        1 ZINC000096908708    0.0400
25     C25     2.1029    1.5598   -7.8170 C.3      1 ZINC000096908708   -0.1500
26     C26     1.2633    0.3336   -5.8085 C.3      1 ZINC000096908708    0.1300
27     S27    -3.3206   -1.3675    0.1301 S.3      1 ZINC000096908708    0.1500
28     C28    -3.2181   -0.7158    1.7814 C.2      1 ZINC000096908708    0.2800
29     N29    -3.9486   -0.5990    2.8568 N.2      1 ZINC000096908708   -0.5000
30     C30    -3.1915    0.0825    3.9105 C.3      1 ZINC000096908708    0.1400
31     C31    -3.8817    1.3892    4.3068 C.3      1 ZINC000096908708   -0.1300
32     C32    -3.0328   -0.8145    5.1110 C.ar     1 ZINC000096908708   -0.0600
33     C33    -2.5507   -0.2991    6.2997 C.ar     1 ZINC000096908708   -0.0900
34     C34    -2.4049   -1.1213    7.4011 C.ar     1 ZINC000096908708   -0.1100
35     C35    -2.7416   -2.4604    7.3138 C.ar     1 ZINC000096908708   -0.0300
36     Cl36   -2.5593   -3.4935    8.6969 Cl       1 ZINC000096908708   -0.0700
37     C37    -3.2240   -2.9756    6.1239 C.ar     1 ZINC000096908708   -0.1100
38     C38    -3.3747   -2.1512    5.0248 C.ar     1 ZINC000096908708   -0.0800
39     C39    -1.8266    0.3688    3.2642 C.3      1 ZINC000096908708    0.1700
40     H40    -1.6397    1.4418    3.2240 H        1 ZINC000096908708    0.1200
41     C41    -0.7262   -0.3307    4.0198 C.ar     1 ZINC000096908708   -0.0900
42     C42    -0.5791   -1.7012    3.9149 C.ar     1 ZINC000096908708   -0.0700
43     C43     0.4299   -2.3433    4.6077 C.ar     1 ZINC000096908708   -0.1000
44     C44     1.2930   -1.6140    5.4061 C.ar     1 ZINC000096908708   -0.0200
45     Cl45    2.5610   -2.4197    6.2761 Cl       1 ZINC000096908708   -0.0600
46     C46     1.1453   -0.2424    5.5106 C.ar     1 ZINC000096908708   -0.1000
47     C47     0.1393    0.3992    4.8130 C.ar     1 ZINC000096908708   -0.0900
48     N48    -1.9575   -0.1948    1.8938 N.pl3    1 ZINC000096908708   -0.5500
49     H49     1.2487    2.0635    1.3447 H        1 ZINC000096908708    0.0700
50     H50    -0.3994    2.3024    0.7163 H        1 ZINC000096908708    0.0600
51     H51    -0.1575    1.6649    2.3605 H        1 ZINC000096908708    0.0500
52     H52     0.6253    0.2519   -0.2294 H        1 ZINC000096908708    0.1400
53     H53     0.8330   -0.5206    2.7117 H        1 ZINC000096908708    0.0700
54     H54     0.9990   -1.6826    1.3736 H        1 ZINC000096908708    0.0500
55     H55     2.1646   -0.3482    1.5433 H        1 ZINC000096908708    0.0600
56     H56    -2.4190   -3.1644   -0.3815 H        1 ZINC000096908708    0.0800
57     H57    -3.6921   -4.1274   -1.1691 H        1 ZINC000096908708    0.0800
58     H58    -1.9860   -4.3756   -1.6119 H        1 ZINC000096908708    0.0700
59     H59    -2.8157   -4.2792   -3.7647 H        1 ZINC000096908708    0.0900
60     H60    -4.2184   -3.1850   -3.9981 H        1 ZINC000096908708    0.0900
61     H61    -2.0548   -2.9753   -5.6408 H        1 ZINC000096908708    0.0900
62     H62    -2.8634   -1.4874   -5.0436 H        1 ZINC000096908708    0.0900
63     H63     1.8800   -2.4574   -5.6818 H        1 ZINC000096908708    0.0800
64     H64     0.1556   -2.9120   -5.6973 H        1 ZINC000096908708    0.0900
65     H65     1.2086   -2.8943   -7.9945 H        1 ZINC000096908708    0.0900
66     H66    -0.1728   -1.7818   -7.8396 H        1 ZINC000096908708    0.0400
67     H67     0.8733   -0.5475   -9.7986 H        1 ZINC000096908708    0.0300
68     H68     2.5458    0.0316   -9.6098 H        1 ZINC000096908708    0.0800
69     H69     2.2182   -1.7124   -9.7489 H        1 ZINC000096908708    0.0700
70     H70     2.0707    1.6107   -8.9053 H        1 ZINC000096908708    0.0600
71     H71     1.7373    2.4974   -7.3983 H        1 ZINC000096908708    0.0600
72     H72     3.1296    1.3925   -7.4914 H        1 ZINC000096908708    0.0700
73     H73     0.7933    1.2216   -5.3858 H        1 ZINC000096908708    0.1000
74     H74     2.2987    0.2694   -5.4739 H        1 ZINC000096908708    0.0800
75     H75    -4.8750    1.1710    4.6990 H        1 ZINC000096908708    0.0800
76     H76    -3.2918    1.8941    5.0719 H        1 ZINC000096908708    0.0700
77     H77    -3.9698    2.0334    3.4320 H        1 ZINC000096908708    0.0600
78     H78    -2.2876    0.7462    6.3676 H        1 ZINC000096908708    0.1300
79     H79    -2.0279   -0.7186    8.3296 H        1 ZINC000096908708    0.1300
80     H80    -3.4867   -4.0209    6.0550 H        1 ZINC000096908708    0.1300
81     H81    -3.7516   -2.5533    4.0960 H        1 ZINC000096908708    0.1300
82     H82    -1.2531   -2.2705    3.2919 H        1 ZINC000096908708    0.1200
83     H83     0.5445   -3.4141    4.5260 H        1 ZINC000096908708    0.1300
84     H84     1.8185    0.3274    6.1340 H        1 ZINC000096908708    0.1400
85     H85     0.0242    1.4700    4.8942 H        1 ZINC000096908708    0.1300
@<TRIPOS>BOND
1     1     2     1
2     1     49    1
3     1     50    1
4     1     51    1
5     2     3     1
6     2     4     1
7     2     52    1
8     3     53    1
9     3     54    1
10    3     55    1
11    4     48    1
12    4     5     2
13    5     6     1
14    5     27    1
15    6     7     2
16    6     8     am
17    8     14    1
18    8     9     1
19    9     10    1
20    9     11    1
21    9     12    1
22    11    56    1
23    11    57    1
24    11    58    1
25    12    13    1
26    12    59    1
27    12    60    1
28    13    14    1
29    13    61    1
30    13    62    1
31    14    15    1
32    14    16    1
33    16    17    2
34    16    18    am
35    18    26    1
36    18    19    1
37    19    20    1
38    19    63    1
39    19    64    1
40    20    21    1
41    20    65    1
42    20    66    1
43    21    22    1
44    21    23    1
45    22    67    1
46    22    68    1
47    22    69    1
48    23    24    1
49    23    25    1
50    23    26    1
51    25    70    1
52    25    71    1
53    25    72    1
54    26    73    1
55    26    74    1
56    27    28    1
57    28    48    1
58    28    29    2
59    29    30    1
60    30    31    1
61    30    32    1
62    30    39    1
63    31    75    1
64    31    76    1
65    31    77    1
66    32    38    ar
67    32    33    ar
68    33    34    ar
69    33    78    1
70    34    35    ar
71    34    79    1
72    35    36    1
73    35    37    ar
74    37    38    ar
75    37    80    1
76    38    81    1
77    39    40    1
78    39    41    1
79    39    48    1
80    41    47    ar
81    41    42    ar
82    42    43    ar
83    42    82    1
84    43    44    ar
85    43    83    1
86    44    45    1
87    44    46    ar
88    46    47    ar
89    46    84    1
90    47    85    1
@<TRIPOS>SUBSTRUCTURE
1   ZINC000096908708 1     RESIDUE    1   A     ZIN   1


@<TRIPOS>MOLECULE
O=C([C@@H]1CC[C@H](C)N1C(C2=C(C(C)C)N3C(S2)=N[C@](C4=CC=C(Cl)C=C4)(C)[C@H]3C5=CC=C(Cl)C=C5)=O)N6CCN(C)[C@H](C)C6
85    90    1     0     0
SMALL
USER_CHARGES
@<TRIPOS>ATOM
1      C1      0.2317    1.6716    1.3423 C.3      1 ZINC000096908708   -0.1500
2      C2      0.2361    0.2453    0.7887 C.3      1 ZINC000096908708   -0.0800
3      C3      1.1218   -0.6402    1.6675 C.3      1 ZINC000096908708   -0.1600
4      C4     -1.1701   -0.2967    0.7854 C.2      1 ZINC000096908708    0.2500
5      C5     -1.6703   -0.8935   -0.3050 C.2      1 ZINC000096908708   -0.3100
6      C6     -0.9941   -1.1093   -1.5870 C.2      1 ZINC000096908708    0.6400
7      O7      0.1045   -0.6242   -1.7849 O.2      1 ZINC000096908708   -0.5100
8      N8     -1.5888   -1.8450   -2.5470 N.am     1 ZINC000096908708   -0.6000
9      C9     -2.8584   -2.5729   -2.4058 C.3      1 ZINC000096908708    0.1200
10     H10    -3.6584   -1.8771   -2.1530 H        1 ZINC000096908708    0.0800
11     C11    -2.7296   -3.6365   -1.3135 C.3      1 ZINC000096908708   -0.1800
12     C12    -3.1556   -3.2435   -3.7635 C.3      1 ZINC000096908708   -0.1200
13     C13    -2.3257   -2.3923   -4.7606 C.3      1 ZINC000096908708   -0.1200
14     C14    -1.0772   -2.0480   -3.9147 C.3      1 ZINC000096908708    0.1200
15     H15    -0.3685   -2.8760   -3.9299 H        1 ZINC000096908708    0.1000
16     C16    -0.4248   -0.7911   -4.4300 C.2      1 ZINC000096908708    0.5200
17     O17    -0.7644    0.2898   -3.9971 O.2      1 ZINC000096908708   -0.5100
18     N18     0.5360   -0.8680   -5.3721 N.am     1 ZINC000096908708   -0.6100
19     C19     0.8808   -2.1548   -5.9953 C.3      1 ZINC000096908708    0.1100
20     C20     0.8490   -1.9825   -7.5176 C.3      1 ZINC000096908708    0.0400
21     N21     1.7129   -0.8569   -7.8979 N.3      1 ZINC000096908708   -0.5400
22     C22     1.8461   -0.7654   -9.3580 C.3      1 ZINC000096908708    0.0200
23     C23     1.2205    0.4070   -7.3340 C.3      1 ZINC000096908708    0.0700
24     H24     0.1935    0.5745   -7.6586 H        1 ZINC000096908708    0.0400
25     C25     2.1029    1.5598   -7.8170 C.3      1 ZINC000096908708   -0.1500
26     C26     1.2633    0.3336   -5.8085 C.3      1 ZINC000096908708    0.1300
27     S27    -3.3206   -1.3675    0.1301 S.3      1 ZINC000096908708    0.1500
28     C28    -3.2181   -0.7158    1.7814 C.2      1 ZINC000096908708    0.2800
29     N29    -3.9486   -0.5990    2.8568 N.2      1 ZINC000096908708   -0.5000
30     C30    -3.1915    0.0825    3.9105 C.3      1 ZINC000096908708    0.1400
31     C31    -3.8817    1.3892    4.3068 C.3      1 ZINC000096908708   -0.1300
32     C32    -3.0328   -0.8145    5.1110 C.ar     1 ZINC000096908708   -0.0600
33     C33    -2.5507   -0.2991    6.2997 C.ar     1 ZINC000096908708   -0.0900
34     C34    -2.4049   -1.1213    7.4011 C.ar     1 ZINC000096908708   -0.1100
35     C35    -2.7416   -2.4604    7.3138 C.ar     1 ZINC000096908708   -0.0300
36     Cl36   -2.5593   -3.4935    8.6969 Cl       1 ZINC000096908708   -0.0700
37     C37    -3.2240   -2.9756    6.1239 C.ar     1 ZINC000096908708   -0.1100
38     C38    -3.3747   -2.1512    5.0248 C.ar     1 ZINC000096908708   -0.0800
39     C39    -1.8266    0.3688    3.2642 C.3      1 ZINC000096908708    0.1700
40     H40    -1.6397    1.4418    3.2240 H        1 ZINC000096908708    0.1200
41     C41    -0.7262   -0.3307    4.0198 C.ar     1 ZINC000096908708   -0.0900
42     C42    -0.5791   -1.7012    3.9149 C.ar     1 ZINC000096908708   -0.0700
43     C43     0.4299   -2.3433    4.6077 C.ar     1 ZINC000096908708   -0.1000
44     C44     1.2930   -1.6140    5.4061 C.ar     1 ZINC000096908708   -0.0200
45     Cl45    2.5610   -2.4197    6.2761 Cl       1 ZINC000096908708   -0.0600
46     C46     1.1453   -0.2424    5.5106 C.ar     1 ZINC000096908708   -0.1000
47     C47     0.1393    0.3992    4.8130 C.ar     1 ZINC000096908708   -0.0900
48     N48    -1.9575   -0.1948    1.8938 N.pl3    1 ZINC000096908708   -0.5500
49     H49     1.2487    2.0635    1.3447 H        1 ZINC000096908708    0.0700
50     H50    -0.3994    2.3024    0.7163 H        1 ZINC000096908708    0.0600
51     H51    -0.1575    1.6649    2.3605 H        1 ZINC000096908708    0.0500
52     H52     0.6253    0.2519   -0.2294 H        1 ZINC000096908708    0.1400
53     H53     0.8330   -0.5206    2.7117 H        1 ZINC000096908708    0.0700
54     H54     0.9990   -1.6826    1.3736 H        1 ZINC000096908708    0.0500
55     H55     2.1646   -0.3482    1.5433 H        1 ZINC000096908708    0.0600
56     H56    -2.4190   -3.1644   -0.3815 H        1 ZINC000096908708    0.0800
57     H57    -3.6921   -4.1274   -1.1691 H        1 ZINC000096908708    0.0800
58     H58    -1.9860   -4.3756   -1.6119 H        1 ZINC000096908708    0.0700
59     H59    -2.8157   -4.2792   -3.7647 H        1 ZINC000096908708    0.0900
60     H60    -4.2184   -3.1850   -3.9981 H        1 ZINC000096908708    0.0900
61     H61    -2.0548   -2.9753   -5.6408 H        1 ZINC000096908708    0.0900
62     H62    -2.8634   -1.4874   -5.0436 H        1 ZINC000096908708    0.0900
63     H63     1.8800   -2.4574   -5.6818 H        1 ZINC000096908708    0.0800
64     H64     0.1556   -2.9120   -5.6973 H        1 ZINC000096908708    0.0900
65     H65     1.2086   -2.8943   -7.9945 H        1 ZINC000096908708    0.0900
66     H66    -0.1728   -1.7818   -7.8396 H        1 ZINC000096908708    0.0400
67     H67     0.8733   -0.5475   -9.7986 H        1 ZINC000096908708    0.0300
68     H68     2.5458    0.0316   -9.6098 H        1 ZINC000096908708    0.0800
69     H69     2.2182   -1.7124   -9.7489 H        1 ZINC000096908708    0.0700
70     H70     2.0707    1.6107   -8.9053 H        1 ZINC000096908708    0.0600
71     H71     1.7373    2.4974   -7.3983 H        1 ZINC000096908708    0.0600
72     H72     3.1296    1.3925   -7.4914 H        1 ZINC000096908708    0.0700
73     H73     0.7933    1.2216   -5.3858 H        1 ZINC000096908708    0.1000
74     H74     2.2987    0.2694   -5.4739 H        1 ZINC000096908708    0.0800
75     H75    -4.8750    1.1710    4.6990 H        1 ZINC000096908708    0.0800
76     H76    -3.2918    1.8941    5.0719 H        1 ZINC000096908708    0.0700
77     H77    -3.9698    2.0334    3.4320 H        1 ZINC000096908708    0.0600
78     H78    -2.2876    0.7462    6.3676 H        1 ZINC000096908708    0.1300
79     H79    -2.0279   -0.7186    8.3296 H        1 ZINC000096908708    0.1300
80     H80    -3.4867   -4.0209    6.0550 H        1 ZINC000096908708    0.1300
81     H81    -3.7516   -2.5533    4.0960 H        1 ZINC000096908708    0.1300
82     H82    -1.2531   -2.2705    3.2919 H        1 ZINC000096908708    0.1200
83     H83     0.5445   -3.4141    4.5260 H        1 ZINC000096908708    0.1300
84     H84     1.8185    0.3274    6.1340 H        1 ZINC000096908708    0.1400
85     H85     0.0242    1.4700    4.8942 H        1 ZINC000096908708    0.1300
@<TRIPOS>BOND
1     1     2     1
2     1     49    1
3     1     50    1
4     1     51    1
5     2     3     1
6     2     4     1
7     2     52    1
8     3     53    1
9     3     54    1
10    3     55    1
11    4     48    1
12    4     5     2
13    5     6     1
14    5     27    1
15    6     7     2
16    6     8     am
17    8     14    1
18    8     9     1
19    9     10    1
20    9     11    1
21    9     12    1
22    11    56    1
23    11    57    1
24    11    58    1
25    12    13    1
26    12    59    1
27    12    60    1
28    13    14    1
29    13    61    1
30    13    62    1
31    14    15    1
32    14    16    1
33    16    17    2
34    16    18    am
35    18    26    1
36    18    19    1
37    19    20    1
38    19    63    1
39    19    64    1
40    20    21    1
41    20    65    1
42    20    66    1
43    21    22    1
44    21    23    1
45    22    67    1
46    22    68    1
47    22    69    1
48    23    24    1
49    23    25    1
50    23    26    1
51    25    70    1
52    25    71    1
53    25    72    1
54    26    73    1
55    26    74    1
56    27    28    1
57    28    48    1
58    28    29    2
59    29    30    1
60    30    31    1
61    30    32    1
62    30    39    1
63    31    75    1
64    31    76    1
65    31    77    1
66    32    38    ar
67    32    33    ar
68    33    34    ar
69    33    78    1
70    34    35    ar
71    34    79    1
72    35    36    1
73    35    37    ar
74    37    38    ar
75    37    80    1
76    38    81    1
77    39    40    1
78    39    41    1
79    39    48    1
80    41    47    ar
81    41    42    ar
82    42    43    ar
83    42    82    1
84    43    44    ar
85    43    83    1
86    44    45    1
87    44    46    ar
88    46    47    ar
89    46    84    1
90    47    85    1
@<TRIPOS>SUBSTRUCTURE
1   ZINC000096908708 1     RESIDUE    1   A     ZIN   1


@<TRIPOS>MOLECULE
ClC(C=C1)=CC2=C1C(C3=C(N=CN3CC4=CC=C(Cl)C=C4)C5=CC=CC=C5)=C(C(O)=O)N2
48    52    1     0     0
SMALL
USER_CHARGES
@<TRIPOS>ATOM
1      O1      0.0021   -0.0041    0.0020 O.co2    1 ZINC000044460259   -0.6900
2      C2     -0.0145    1.2218    0.0088 C.2      1 ZINC000044460259    0.5300
3      O3      1.0387    1.8491    0.0021 O.co2    1 ZINC000044460259   -0.6400
4      C4     -1.2478    1.9116    0.0184 C.2      1 ZINC000044460259    0.1100
5      C5     -1.4026    3.2949    0.0210 C.2      1 ZINC000044460259   -0.1100
6      C6     -0.3326    4.3001    0.0148 C.2      1 ZINC000044460259    0.1300
7      C7      0.2875    4.8665    1.1206 C.2      1 ZINC000044460259    0.0400
8      C8     -0.0072    4.5683    2.5406 C.ar     1 ZINC000044460259    0.0300
9      C9     -1.3125    4.2789    2.9393 C.ar     1 ZINC000044460259   -0.1100
10     C10    -1.5806    4.0014    4.2639 C.ar     1 ZINC000044460259   -0.1200
11     C11    -0.5583    4.0099    5.1961 C.ar     1 ZINC000044460259   -0.1300
12     C12     0.7382    4.2962    4.8071 C.ar     1 ZINC000044460259   -0.1300
13     C13     1.0201    4.5701    3.4846 C.ar     1 ZINC000044460259   -0.1000
14     N14     1.2054    5.7353    0.6628 N.2      1 ZINC000044460259   -0.4800
15     C15     1.1914    5.7411   -0.6418 C.2      1 ZINC000044460259    0.1700
16     N16     0.2643    4.8685   -1.0899 N.pl3    1 ZINC000044460259   -0.4400
17     C17    -0.0556    4.5856   -2.4912 C.3      1 ZINC000044460259    0.1500
18     C18    -1.2253    5.4333   -2.9205 C.ar     1 ZINC000044460259   -0.1000
19     C19    -2.5151    4.9604   -2.7656 C.ar     1 ZINC000044460259   -0.0700
20     C20    -3.5882    5.7375   -3.1591 C.ar     1 ZINC000044460259   -0.1100
21     C21    -3.3715    6.9888   -3.7080 C.ar     1 ZINC000044460259   -0.0300
22     Cl22   -4.7189    7.9656   -4.2020 Cl       1 ZINC000044460259   -0.0700
23     C23    -2.0805    7.4616   -3.8627 C.ar     1 ZINC000044460259   -0.1200
24     C24    -1.0083    6.6859   -3.4636 C.ar     1 ZINC000044460259   -0.0900
25     C25    -2.8500    3.5493    0.0308 C.ar     1 ZINC000044460259   -0.0900
26     C26    -3.6200    4.7142    0.0376 C.ar     1 ZINC000044460259   -0.0500
27     C27    -4.9832    4.6279    0.0468 C.ar     1 ZINC000044460259   -0.1400
28     C28    -5.6106    3.3881    0.0494 C.ar     1 ZINC000044460259   -0.0200
29     Cl29   -7.3445    3.3023    0.0611 Cl       1 ZINC000044460259   -0.0800
30     C30    -4.8698    2.2258    0.0423 C.ar     1 ZINC000044460259   -0.1200
31     C31    -3.4783    2.2907    0.0334 C.ar     1 ZINC000044460259    0.1000
32     N32    -2.5006    1.3229    0.0206 N.pl3    1 ZINC000044460259   -0.5600
33     H33    -2.1114    4.2723    2.2125 H        1 ZINC000044460259    0.1200
34     H34    -2.5907    3.7775    4.5738 H        1 ZINC000044460259    0.1200
35     H35    -0.7733    3.7924    6.2319 H        1 ZINC000044460259    0.1100
36     H36     1.5319    4.3012    5.5395 H        1 ZINC000044460259    0.1200
37     H37     2.0325    4.7934    3.1821 H        1 ZINC000044460259    0.1200
38     H38     1.8279    6.3486   -1.2681 H        1 ZINC000044460259    0.2000
39     H39     0.8082    4.8159   -3.1148 H        1 ZINC000044460259    0.1000
40     H40    -0.3115    3.5316   -2.5998 H        1 ZINC000044460259    0.1000
41     H41    -2.6841    3.9834   -2.3375 H        1 ZINC000044460259    0.1400
42     H42    -4.5958    5.3677   -3.0385 H        1 ZINC000044460259    0.1300
43     H43    -1.9107    8.4382   -4.2914 H        1 ZINC000044460259    0.1300
44     H44    -0.0005    7.0550   -3.5840 H        1 ZINC000044460259    0.1300
45     H45    -3.1388    5.6811    0.0359 H        1 ZINC000044460259    0.1200
46     H46    -5.5775    5.5296    0.0524 H        1 ZINC000044460259    0.1300
47     H47    -5.3670    1.2670    0.0437 H        1 ZINC000044460259    0.1300
48     H48    -2.6652    0.3670    0.0150 H        1 ZINC000044460259    0.4200
@<TRIPOS>BOND
1     1     2     ar
2     2     3     ar
3     2     4     1
4     4     32    1
5     4     5     2
6     5     6     1
7     5     25    1
8     6     16    1
9     6     7     2
10    7     8     1
11    7     14    1
12    8     13    ar
13    8     9     ar
14    9     10    ar
15    9     33    1
16    10    11    ar
17    10    34    1
18    11    12    ar
19    11    35    1
20    12    13    ar
21    12    36    1
22    13    37    1
23    14    15    2
24    15    16    1
25    15    38    1
26    16    17    1
27    17    18    1
28    17    39    1
29    17    40    1
30    18    24    ar
31    18    19    ar
32    19    20    ar
33    19    41    1
34    20    21    ar
35    20    42    1
36    21    22    1
37    21    23    ar
38    23    24    ar
39    23    43    1
40    24    44    1
41    25    31    ar
42    25    26    ar
43    26    27    ar
44    26    45    1
45    27    28    ar
46    27    46    1
47    28    29    1
48    28    30    ar
49    30    31    ar
50    30    47    1
51    31    32    1
52    32    48    1
@<TRIPOS>SUBSTRUCTURE
1   ZINC000044460259 1     RESIDUE    1   A     ZIN   1


@<TRIPOS>MOLECULE
ClC(C=C1)=CC2=C1C(C3=C(N=CN3CC4=CC=C(Cl)C=C4)C5=CC=CC=C5)=C(C(O)=O)N2
48    52    1     0     0
SMALL
USER_CHARGES
@<TRIPOS>ATOM
1      O1      0.0021   -0.0041    0.0020 O.co2    1 ZINC000044460259   -0.6900
2      C2     -0.0145    1.2218    0.0088 C.2      1 ZINC000044460259    0.5300
3      O3      1.0387    1.8491    0.0021 O.co2    1 ZINC000044460259   -0.6400
4      C4     -1.2478    1.9116    0.0184 C.2      1 ZINC000044460259    0.1100
5      C5     -1.4026    3.2949    0.0210 C.2      1 ZINC000044460259   -0.1100
6      C6     -0.3326    4.3001    0.0148 C.2      1 ZINC000044460259    0.1300
7      C7      0.2875    4.8665    1.1206 C.2      1 ZINC000044460259    0.0400
8      C8     -0.0072    4.5683    2.5406 C.ar     1 ZINC000044460259    0.0300
9      C9     -1.3125    4.2789    2.9393 C.ar     1 ZINC000044460259   -0.1100
10     C10    -1.5806    4.0014    4.2639 C.ar     1 ZINC000044460259   -0.1200
11     C11    -0.5583    4.0099    5.1961 C.ar     1 ZINC000044460259   -0.1300
12     C12     0.7382    4.2962    4.8071 C.ar     1 ZINC000044460259   -0.1300
13     C13     1.0201    4.5701    3.4846 C.ar     1 ZINC000044460259   -0.1000
14     N14     1.2054    5.7353    0.6628 N.2      1 ZINC000044460259   -0.4800
15     C15     1.1914    5.7411   -0.6418 C.2      1 ZINC000044460259    0.1700
16     N16     0.2643    4.8685   -1.0899 N.pl3    1 ZINC000044460259   -0.4400
17     C17    -0.0556    4.5856   -2.4912 C.3      1 ZINC000044460259    0.1500
18     C18    -1.2253    5.4333   -2.9205 C.ar     1 ZINC000044460259   -0.1000
19     C19    -2.5151    4.9604   -2.7656 C.ar     1 ZINC000044460259   -0.0700
20     C20    -3.5882    5.7375   -3.1591 C.ar     1 ZINC000044460259   -0.1100
21     C21    -3.3715    6.9888   -3.7080 C.ar     1 ZINC000044460259   -0.0300
22     Cl22   -4.7189    7.9656   -4.2020 Cl       1 ZINC000044460259   -0.0700
23     C23    -2.0805    7.4616   -3.8627 C.ar     1 ZINC000044460259   -0.1200
24     C24    -1.0083    6.6859   -3.4636 C.ar     1 ZINC000044460259   -0.0900
25     C25    -2.8500    3.5493    0.0308 C.ar     1 ZINC000044460259   -0.0900
26     C26    -3.6200    4.7142    0.0376 C.ar     1 ZINC000044460259   -0.0500
27     C27    -4.9832    4.6279    0.0468 C.ar     1 ZINC000044460259   -0.1400
28     C28    -5.6106    3.3881    0.0494 C.ar     1 ZINC000044460259   -0.0200
29     Cl29   -7.3445    3.3023    0.0611 Cl       1 ZINC000044460259   -0.0800
30     C30    -4.8698    2.2258    0.0423 C.ar     1 ZINC000044460259   -0.1200
31     C31    -3.4783    2.2907    0.0334 C.ar     1 ZINC000044460259    0.1000
32     N32    -2.5006    1.3229    0.0206 N.pl3    1 ZINC000044460259   -0.5600
33     H33    -2.1114    4.2723    2.2125 H        1 ZINC000044460259    0.1200
34     H34    -2.5907    3.7775    4.5738 H        1 ZINC000044460259    0.1200
35     H35    -0.7733    3.7924    6.2319 H        1 ZINC000044460259    0.1100
36     H36     1.5319    4.3012    5.5395 H        1 ZINC000044460259    0.1200
37     H37     2.0325    4.7934    3.1821 H        1 ZINC000044460259    0.1200
38     H38     1.8279    6.3486   -1.2681 H        1 ZINC000044460259    0.2000
39     H39     0.8082    4.8159   -3.1148 H        1 ZINC000044460259    0.1000
40     H40    -0.3115    3.5316   -2.5998 H        1 ZINC000044460259    0.1000
41     H41    -2.6841    3.9834   -2.3375 H        1 ZINC000044460259    0.1400
42     H42    -4.5958    5.3677   -3.0385 H        1 ZINC000044460259    0.1300
43     H43    -1.9107    8.4382   -4.2914 H        1 ZINC000044460259    0.1300
44     H44    -0.0005    7.0550   -3.5840 H        1 ZINC000044460259    0.1300
45     H45    -3.1388    5.6811    0.0359 H        1 ZINC000044460259    0.1200
46     H46    -5.5775    5.5296    0.0524 H        1 ZINC000044460259    0.1300
47     H47    -5.3670    1.2670    0.0437 H        1 ZINC000044460259    0.1300
48     H48    -2.6652    0.3670    0.0150 H        1 ZINC000044460259    0.4200
@<TRIPOS>BOND
1     1     2     ar
2     2     3     ar
3     2     4     1
4     4     32    1
5     4     5     2
6     5     6     1
7     5     25    1
8     6     16    1
9     6     7     2
10    7     8     1
11    7     14    1
12    8     13    ar
13    8     9     ar
14    9     10    ar
15    9     33    1
16    10    11    ar
17    10    34    1
18    11    12    ar
19    11    35    1
20    12    13    ar
21    12    36    1
22    13    37    1
23    14    15    2
24    15    16    1
25    15    38    1
26    16    17    1
27    17    18    1
28    17    39    1
29    17    40    1
30    18    24    ar
31    18    19    ar
32    19    20    ar
33    19    41    1
34    20    21    ar
35    20    42    1
36    21    22    1
37    21    23    ar
38    23    24    ar
39    23    43    1
40    24    44    1
41    25    31    ar
42    25    26    ar
43    26    27    ar
44    26    45    1
45    27    28    ar
46    27    46    1
47    28    29    1
48    28    30    ar
49    30    31    ar
50    30    47    1
51    31    32    1
52    32    48    1
@<TRIPOS>SUBSTRUCTURE
1   ZINC000044460259 1     RESIDUE    1   A     ZIN   1


@<TRIPOS>MOLECULE
O=C(C(C=C(I)C=C1)=C1N2)N([C@@H](C(O)=O)C3=CC=C(Cl)C=C3)[C@@H](C4=CC=C(Cl)C=C4)C2=O
46    49    1     0     0
SMALL
USER_CHARGES
@<TRIPOS>ATOM
1      O1     -1.2255    3.1174    1.6481 O.co2    1 ZINC000016051338   -0.6600
2      C2     -1.7387    2.0819    1.2596 C.2      1 ZINC000016051338    0.4900
3      O3     -1.5087    1.0333    1.8376 O.co2    1 ZINC000016051338   -0.6800
4      C4     -2.6622    2.0991    0.0688 C.3      1 ZINC000016051338    0.0900
5      H5     -3.4028    1.3061    0.1719 H        1 ZINC000016051338    0.1200
6      C6     -1.8630    1.8796   -1.1898 C.ar     1 ZINC000016051338   -0.0600
7      C7     -0.6440    2.5107   -1.3532 C.ar     1 ZINC000016051338   -0.0900
8      C8      0.0894    2.3098   -2.5073 C.ar     1 ZINC000016051338   -0.1100
9      C9     -0.3967    1.4767   -3.4992 C.ar     1 ZINC000016051338   -0.0400
10     Cl10    0.5241    1.2233   -4.9489 Cl       1 ZINC000016051338   -0.0800
11     C11    -1.6168    0.8453   -3.3351 C.ar     1 ZINC000016051338   -0.1100
12     C12    -2.3466    1.0426   -2.1781 C.ar     1 ZINC000016051338   -0.1000
13     N13    -3.3413    3.3952   -0.0038 N.am     1 ZINC000016051338   -0.5500
14     C14    -4.6591    3.4508    0.1821 C.2      1 ZINC000016051338    0.5500
15     O15    -5.2417    2.4107    0.4211 O.2      1 ZINC000016051338   -0.5300
16     C16    -5.4560    4.6816    0.1187 C.ar     1 ZINC000016051338   -0.1300
17     C17    -6.7130    4.6104   -0.5040 C.ar     1 ZINC000016051338   -0.0100
18     C18    -7.5085    5.7285   -0.6018 C.ar     1 ZINC000016051338   -0.1300
19     I19    -9.3804    5.6034   -1.5340 I        1 ZINC000016051338   -0.0400
20     C20    -7.0723    6.9374   -0.0835 C.ar     1 ZINC000016051338   -0.0400
21     C21    -5.8434    7.0229    0.5321 C.ar     1 ZINC000016051338   -0.1500
22     C22    -5.0220    5.8984    0.6437 C.ar     1 ZINC000016051338    0.2200
23     N23    -3.8066    6.0623    1.2851 N.am     1 ZINC000016051338   -0.6700
24     C24    -2.6525    5.5220    0.9055 C.2      1 ZINC000016051338    0.5300
25     O25    -1.6470    5.7815    1.5321 O.2      1 ZINC000016051338   -0.4700
26     C26    -2.5559    4.5996   -0.2729 C.3      1 ZINC000016051338    0.1800
27     H27    -1.5137    4.3273   -0.4390 H        1 ZINC000016051338    0.1500
28     C28    -3.0993    5.2879   -1.4985 C.ar     1 ZINC000016051338   -0.1000
29     C29    -3.2098    6.6656   -1.5254 C.ar     1 ZINC000016051338   -0.1000
30     C30    -3.7081    7.2974   -2.6492 C.ar     1 ZINC000016051338   -0.1000
31     C31    -4.0963    6.5507   -3.7473 C.ar     1 ZINC000016051338   -0.0300
32     Cl32   -4.7217    7.3435   -5.1594 Cl       1 ZINC000016051338   -0.0700
33     C33    -3.9855    5.1719   -3.7198 C.ar     1 ZINC000016051338   -0.1000
34     C34    -3.4818    4.5416   -2.5975 C.ar     1 ZINC000016051338   -0.0800
35     H35    -0.2648    3.1613   -0.5790 H        1 ZINC000016051338    0.1500
36     H36     1.0415    2.8032   -2.6350 H        1 ZINC000016051338    0.1300
37     H37    -1.9969    0.1951   -4.1092 H        1 ZINC000016051338    0.1300
38     H38    -3.2989    0.5495   -2.0497 H        1 ZINC000016051338    0.1300
39     H39    -7.0576    3.6706   -0.9095 H        1 ZINC000016051338    0.1400
40     H40    -7.6973    7.8146   -0.1628 H        1 ZINC000016051338    0.1400
41     H41    -5.5114    7.9690    0.9332 H        1 ZINC000016051338    0.1400
42     H42    -3.7957    6.6192    2.0792 H        1 ZINC000016051338    0.4100
43     H43    -2.9070    7.2484   -0.6680 H        1 ZINC000016051338    0.1300
44     H44    -3.7947    8.3737   -2.6700 H        1 ZINC000016051338    0.1300
45     H45    -4.2887    4.5884   -4.5765 H        1 ZINC000016051338    0.1300
46     H46    -3.3949    3.4653   -2.5760 H        1 ZINC000016051338    0.1300
@<TRIPOS>BOND
1     1     2     ar
2     2     3     ar
3     2     4     1
4     4     5     1
5     4     6     1
6     4     13    1
7     6     12    ar
8     6     7     ar
9     7     8     ar
10    7     35    1
11    8     9     ar
12    8     36    1
13    9     10    1
14    9     11    ar
15    11    12    ar
16    11    37    1
17    12    38    1
18    13    26    1
19    13    14    am
20    14    15    2
21    14    16    1
22    16    22    ar
23    16    17    ar
24    17    18    ar
25    17    39    1
26    18    19    1
27    18    20    ar
28    20    21    ar
29    20    40    1
30    21    22    ar
31    21    41    1
32    22    23    1
33    23    24    am
34    23    42    1
35    24    25    2
36    24    26    1
37    26    27    1
38    26    28    1
39    28    34    ar
40    28    29    ar
41    29    30    ar
42    29    43    1
43    30    31    ar
44    30    44    1
45    31    32    1
46    31    33    ar
47    33    34    ar
48    33    45    1
49    34    46    1
@<TRIPOS>SUBSTRUCTURE
1   ZINC000016051338 1     RESIDUE    1   A     ZIN   1


@<TRIPOS>MOLECULE
O=C([C@H](C1=CC=C(Cl)C=C1)N([C@H](C)C2=C(N)C=C(Cl)C=C2)C(C3=C4C=CC(I)=C3)=O)N4CCCN5CCN(C)CC5
76    80    1     0     0
SMALL
USER_CHARGES
@<TRIPOS>ATOM
1      C1      0.9473   -1.2088    0.0665 C.3      1 ZINC000038377629   -0.1600
2      C2     -0.0230   -0.0262    0.0349 C.3      1 ZINC000038377629    0.1800
3      H3      0.1724    0.5805   -0.8494 H        1 ZINC000038377629    0.1200
4      C4      0.1676    0.8131    1.2720 C.ar     1 ZINC000038377629   -0.1900
5      C5      0.8084    0.2832    2.3744 C.ar     1 ZINC000038377629   -0.0500
6      C6      0.9835    1.0520    3.5105 C.ar     1 ZINC000038377629   -0.1700
7      C7      0.5173    2.3545    3.5466 C.ar     1 ZINC000038377629    0.0300
8      Cl8     0.7394    3.3159    4.9750 Cl       1 ZINC000038377629   -0.0600
9      C9     -0.1246    2.8908    2.4460 C.ar     1 ZINC000038377629   -0.1900
10     C10    -0.2964    2.1224    1.3021 C.ar     1 ZINC000038377629    0.2500
11     N11    -0.9441    2.6611    0.1880 N.pl3    1 ZINC000038377629   -0.8700
12     N12    -1.3997   -0.5250   -0.0095 N.am     1 ZINC000038377629   -0.5800
13     C13    -2.1431   -0.2887   -1.0892 C.2      1 ZINC000038377629    0.5600
14     O14    -1.6318    0.3257   -2.0055 O.2      1 ZINC000038377629   -0.5300
15     C15    -3.5369   -0.7196   -1.2489 C.ar     1 ZINC000038377629   -0.1400
16     C16    -4.4277    0.1762   -1.8629 C.ar     1 ZINC000038377629   -0.0100
17     C17    -5.7491   -0.1630   -2.0389 C.ar     1 ZINC000038377629   -0.1200
18     I18    -7.0632    1.1860   -2.9567 I        1 ZINC000038377629   -0.0100
19     C19    -6.2114   -1.3969   -1.6098 C.ar     1 ZINC000038377629   -0.0300
20     C20    -5.3500   -2.2872   -1.0083 C.ar     1 ZINC000038377629   -0.1500
21     C21    -4.0043   -1.9621   -0.8219 C.ar     1 ZINC000038377629    0.2100
22     N22    -3.1998   -2.9137   -0.2196 N.am     1 ZINC000038377629   -0.5400
23     C23    -3.4009   -4.3094   -0.6167 C.3      1 ZINC000038377629    0.0900
24     C24    -2.4962   -4.6366   -1.8063 C.3      1 ZINC000038377629   -0.1400
25     C25    -2.7062   -6.0943   -2.2210 C.3      1 ZINC000038377629    0.0600
26     N26    -1.8375   -6.4085   -3.3632 N.3      1 ZINC000038377629   -0.5400
27     C27    -1.9082   -5.3539   -4.3845 C.3      1 ZINC000038377629    0.0200
28     C28    -0.9466   -5.6890   -5.5267 C.3      1 ZINC000038377629    0.0000
29     N29    -1.3132   -6.9857   -6.1111 N.4      1 ZINC000038377629   -0.3900
30     H30    -2.2600   -6.9428   -6.4573 H        1 ZINC000038377629    0.4200
31     C31    -0.4008   -7.2987   -7.2191 C.3      1 ZINC000038377629   -0.0500
32     C32    -1.2141   -8.0325   -5.0855 C.3      1 ZINC000038377629    0.0000
33     C33    -2.1779   -7.7170   -3.9396 C.3      1 ZINC000038377629    0.0300
34     C34    -2.2596   -2.6694    0.6884 C.2      1 ZINC000038377629    0.5200
35     O35    -1.6523   -3.6011    1.1720 O.2      1 ZINC000038377629   -0.5000
36     C36    -1.9248   -1.2765    1.1304 C.3      1 ZINC000038377629    0.1700
37     H37    -1.1745   -1.3145    1.9202 H        1 ZINC000038377629    0.1500
38     C38    -3.1675   -0.5983    1.6469 C.ar     1 ZINC000038377629   -0.1100
39     C39    -4.1635   -1.3455    2.2476 C.ar     1 ZINC000038377629   -0.0900
40     C40    -5.3035   -0.7241    2.7215 C.ar     1 ZINC000038377629   -0.1000
41     C41    -5.4477    0.6460    2.5946 C.ar     1 ZINC000038377629   -0.0200
42     Cl42   -6.8790    1.4274    3.1900 Cl       1 ZINC000038377629   -0.0600
43     C43    -4.4506    1.3933    1.9933 C.ar     1 ZINC000038377629   -0.1000
44     C44    -3.3085    0.7714    1.5249 C.ar     1 ZINC000038377629   -0.0900
45     H45     1.9716   -0.8376    0.0995 H        1 ZINC000038377629    0.0800
46     H46     0.7520   -1.8154    0.9507 H        1 ZINC000038377629    0.0700
47     H47     0.8095   -1.8158   -0.8283 H        1 ZINC000038377629    0.0600
48     H48     1.1730   -0.7330    2.3495 H        1 ZINC000038377629    0.1400
49     H49     1.4847    0.6350    4.3714 H        1 ZINC000038377629    0.1300
50     H50    -0.4883    3.9073    2.4743 H        1 ZINC000038377629    0.1400
51     H51    -1.2745    3.5728    0.2128 H        1 ZINC000038377629    0.4000
52     H52    -1.0636    2.1235   -0.6105 H        1 ZINC000038377629    0.4000
53     H53    -4.0724    1.1391   -2.1991 H        1 ZINC000038377629    0.1400
54     H54    -7.2496   -1.6608   -1.7471 H        1 ZINC000038377629    0.1400
55     H55    -5.7188   -3.2466   -0.6768 H        1 ZINC000038377629    0.1400
56     H56    -3.1535   -4.9641    0.2189 H        1 ZINC000038377629    0.1100
57     H57    -4.4426   -4.4600   -0.9002 H        1 ZINC000038377629    0.0900
58     H58    -2.7435   -3.9819   -2.6419 H        1 ZINC000038377629    0.0700
59     H59    -1.4545   -4.4861   -1.5227 H        1 ZINC000038377629    0.0800
60     H60    -2.4588   -6.7491   -1.3854 H        1 ZINC000038377629    0.1000
61     H61    -3.7479   -6.2449   -2.5045 H        1 ZINC000038377629    0.0500
62     H62    -2.9250   -5.2904   -4.7719 H        1 ZINC000038377629    0.0600
63     H63    -1.6273   -4.3987   -3.9409 H        1 ZINC000038377629    0.1300
64     H64    -1.0079   -4.9152   -6.2920 H        1 ZINC000038377629    0.1400
65     H65     0.0718   -5.7390   -5.1415 H        1 ZINC000038377629    0.1400
66     H66     0.6221   -7.3446   -6.8455 H        1 ZINC000038377629    0.1200
67     H67    -0.6727   -8.2610   -7.6529 H        1 ZINC000038377629    0.1200
68     H68    -0.4749   -6.5227   -7.9810 H        1 ZINC000038377629    0.1200
69     H69    -1.4738   -8.9962   -5.5237 H        1 ZINC000038377629    0.1400
70     H70    -0.1943   -8.0705   -4.7025 H        1 ZINC000038377629    0.1400
71     H71    -2.0938   -8.4857   -3.1714 H        1 ZINC000038377629    0.1200
72     H72    -3.1992   -7.6924   -4.3196 H        1 ZINC000038377629    0.0600
73     H73    -4.0509   -2.4151    2.3462 H        1 ZINC000038377629    0.1300
74     H74    -6.0817   -1.3080    3.1904 H        1 ZINC000038377629    0.1400
75     H75    -4.5628    2.4628    1.8937 H        1 ZINC000038377629    0.1400
76     H76    -2.5299    1.3547    1.0558 H        1 ZINC000038377629    0.1400
@<TRIPOS>BOND
1     1     2     1
2     1     45    1
3     1     46    1
4     1     47    1
5     2     3     1
6     2     4     1
7     2     12    1
8     4     10    ar
9     4     5     ar
10    5     6     ar
11    5     48    1
12    6     7     ar
13    6     49    1
14    7     8     1
15    7     9     ar
16    9     10    ar
17    9     50    1
18    10    11    1
19    11    51    1
20    11    52    1
21    12    36    1
22    12    13    am
23    13    14    2
24    13    15    1
25    15    21    ar
26    15    16    ar
27    16    17    ar
28    16    53    1
29    17    18    1
30    17    19    ar
31    19    20    ar
32    19    54    1
33    20    21    ar
34    20    55    1
35    21    22    1
36    22    23    1
37    22    34    am
38    23    24    1
39    23    56    1
40    23    57    1
41    24    25    1
42    24    58    1
43    24    59    1
44    25    26    1
45    25    60    1
46    25    61    1
47    26    33    1
48    26    27    1
49    27    28    1
50    27    62    1
51    27    63    1
52    28    29    1
53    28    64    1
54    28    65    1
55    29    30    1
56    29    31    1
57    29    32    1
58    31    66    1
59    31    67    1
60    31    68    1
61    32    33    1
62    32    69    1
63    32    70    1
64    33    71    1
65    33    72    1
66    34    35    2
67    34    36    1
68    36    37    1
69    36    38    1
70    38    44    ar
71    38    39    ar
72    39    40    ar
73    39    73    1
74    40    41    ar
75    40    74    1
76    41    42    1
77    41    43    ar
78    43    44    ar
79    43    75    1
80    44    76    1
@<TRIPOS>SUBSTRUCTURE
1   ZINC000038377629 1     RESIDUE    1   A     ZIN   1


@<TRIPOS>MOLECULE
O=C(C(C=CC(C(F)(F)F)=C1)=C1N2)N(C(C(OC)=O)C3=CC=C(Cl)C=C3)C(C4=CC=C(Cl)C=C4)C2=S
53    56    1     0     0
SMALL
USER_CHARGES
@<TRIPOS>ATOM
1      C1      2.2172   -3.7502    1.0106 C.3      1 ZINC000084688294    0.0400
2      O2      1.3539   -2.7817    0.3586 O.3      1 ZINC000084688294   -0.3500
3      C3      0.0609   -3.1141    0.2199 C.2      1 ZINC000084688294    0.4400
4      O4     -0.3365   -4.1791    0.6296 O.2      1 ZINC000084688294   -0.4700
5      C5     -0.8953   -2.1591   -0.4470 C.3      1 ZINC000084688294    0.1900
6      H6     -0.9224   -1.2232    0.1111 H        1 ZINC000084688294    0.1600
7      C7     -0.4352   -1.8901   -1.8566 C.ar     1 ZINC000084688294   -0.1000
8      C8      0.0137   -2.9314   -2.6474 C.ar     1 ZINC000084688294   -0.0900
9      C9      0.4358   -2.6853   -3.9403 C.ar     1 ZINC000084688294   -0.1000
10     C10     0.4090   -1.3967   -4.4431 C.ar     1 ZINC000084688294   -0.0200
11     Cl11    0.9384   -1.0869   -6.0671 Cl       1 ZINC000084688294   -0.0600
12     C12    -0.0404   -0.3550   -3.6512 C.ar     1 ZINC000084688294   -0.1000
13     C13    -0.4676   -0.6031   -2.3603 C.ar     1 ZINC000084688294   -0.0800
14     N14    -2.2355   -2.7499   -0.4751 N.am     1 ZINC000084688294   -0.5700
15     C15    -3.2134   -2.1793    0.2267 C.2      1 ZINC000084688294    0.5700
16     O16    -2.9400   -1.1893    0.8777 O.2      1 ZINC000084688294   -0.5100
17     C17    -4.5981   -2.6633    0.2675 C.ar     1 ZINC000084688294   -0.1000
18     C18    -5.6231   -1.7030    0.2482 C.ar     1 ZINC000084688294   -0.0400
19     C19    -6.9424   -2.0891    0.2791 C.ar     1 ZINC000084688294   -0.0800
20     C20    -7.2707   -3.4341    0.3299 C.ar     1 ZINC000084688294   -0.1300
21     C21    -8.7176   -3.8541    0.3606 C.3      1 ZINC000084688294    0.5100
22     F22    -9.5337   -2.7182    0.3298 F        1 ZINC000084688294   -0.1700
23     F23    -8.9938   -4.6571   -0.7513 F        1 ZINC000084688294   -0.1700
24     F24    -8.9686   -4.5770    1.5317 F        1 ZINC000084688294   -0.1700
25     C25    -6.2779   -4.3881    0.3519 C.ar     1 ZINC000084688294   -0.0900
26     C26    -4.9313   -4.0165    0.3233 C.ar     1 ZINC000084688294    0.1600
27     N27    -3.9931   -5.0316    0.3596 N.am     1 ZINC000084688294   -0.5900
28     C28    -2.8721   -5.0753   -0.3542 C.2      1 ZINC000084688294    0.2400
29     S29    -1.9247   -6.3577   -0.2332 S.2      1 ZINC000084688294   -0.3300
30     C30    -2.4711   -3.9499   -1.2780 C.3      1 ZINC000084688294    0.2000
31     H31    -1.5569   -4.2196   -1.8067 H        1 ZINC000084688294    0.1500
32     C32    -3.5739   -3.6966   -2.2734 C.ar     1 ZINC000084688294   -0.1100
33     C33    -3.8335   -2.4090   -2.7042 C.ar     1 ZINC000084688294   -0.0800
34     C34    -4.8447   -2.1761   -3.6172 C.ar     1 ZINC000084688294   -0.1000
35     C35    -5.5972   -3.2319   -4.0998 C.ar     1 ZINC000084688294   -0.0200
36     Cl36   -6.8672   -2.9403   -5.2469 Cl       1 ZINC000084688294   -0.0600
37     C37    -5.3370   -4.5204   -3.6683 C.ar     1 ZINC000084688294   -0.1000
38     C38    -4.3217   -4.7527   -2.7596 C.ar     1 ZINC000084688294   -0.0900
39     H39     3.2330   -3.3576    1.0579 H        1 ZINC000084688294    0.1000
40     H40     1.8534   -3.9393    2.0206 H        1 ZINC000084688294    0.0600
41     H41     2.2133   -4.6806    0.4429 H        1 ZINC000084688294    0.0700
42     H42     0.0350   -3.9372   -2.2548 H        1 ZINC000084688294    0.1300
43     H43     0.7869   -3.4988   -4.5579 H        1 ZINC000084688294    0.1400
44     H44    -0.0613    0.6512   -4.0430 H        1 ZINC000084688294    0.1400
45     H45    -0.8187    0.2099   -1.7422 H        1 ZINC000084688294    0.1400
46     H46    -5.3730   -0.6532    0.2083 H        1 ZINC000084688294    0.1500
47     H47    -7.7234   -1.3433    0.2643 H        1 ZINC000084688294    0.1600
48     H48    -6.5429   -5.4344    0.3919 H        1 ZINC000084688294    0.1500
49     H49    -4.1675   -5.7754    0.9573 H        1 ZINC000084688294    0.4300
50     H50    -3.2462   -1.5848   -2.3271 H        1 ZINC000084688294    0.1300
51     H51    -5.0477   -1.1700   -3.9534 H        1 ZINC000084688294    0.1400
52     H52    -5.9243   -5.3450   -4.0445 H        1 ZINC000084688294    0.1400
53     H53    -4.1182   -5.7585   -2.4229 H        1 ZINC000084688294    0.1300
@<TRIPOS>BOND
1     1     2     1
2     1     39    1
3     1     40    1
4     1     41    1
5     2     3     1
6     3     4     2
7     3     5     1
8     5     6     1
9     5     7     1
10    5     14    1
11    7     13    ar
12    7     8     ar
13    8     9     ar
14    8     42    1
15    9     10    ar
16    9     43    1
17    10    11    1
18    10    12    ar
19    12    13    ar
20    12    44    1
21    13    45    1
22    14    30    1
23    14    15    am
24    15    16    2
25    15    17    1
26    17    26    ar
27    17    18    ar
28    18    19    ar
29    18    46    1
30    19    20    ar
31    19    47    1
32    20    21    1
33    20    25    ar
34    21    22    1
35    21    23    1
36    21    24    1
37    25    26    ar
38    25    48    1
39    26    27    1
40    27    28    am
41    27    49    1
42    28    29    2
43    28    30    1
44    30    31    1
45    30    32    1
46    32    38    ar
47    32    33    ar
48    33    34    ar
49    33    50    1
50    34    35    ar
51    34    51    1
52    35    36    1
53    35    37    ar
54    37    38    ar
55    37    52    1
56    38    53    1
@<TRIPOS>SUBSTRUCTURE
1   ZINC000084688294 1     RESIDUE    1   A     ZIN   1


@<TRIPOS>MOLECULE
O=C(C(C=C(F)C=C1)=C1N2)N(C(C(OC)=O)C3=CC=C(Cl)C=C3)C(C4=CC=C(Cl)C=C4)C2=S
50    53    1     0     0
SMALL
USER_CHARGES
@<TRIPOS>ATOM
1      C1      2.2175   -3.7544    1.0071 C.3      1 ZINC000084687355    0.0400
2      O2      1.3544   -2.7853    0.3558 O.3      1 ZINC000084687355   -0.3500
3      C3      0.0611   -3.1168    0.2179 C.2      1 ZINC000084687355    0.4400
4      O4     -0.3367   -4.1815    0.6278 O.2      1 ZINC000084687355   -0.4700
5      C5     -0.8949   -2.1610   -0.4482 C.3      1 ZINC000084687355    0.1900
6      H6     -0.9210   -1.2252    0.1100 H        1 ZINC000084687355    0.1600
7      C7     -0.4356   -1.8922   -1.8582 C.ar     1 ZINC000084687355   -0.1000
8      C8      0.0123   -2.9336   -2.6493 C.ar     1 ZINC000084687355   -0.0900
9      C9      0.4337   -2.6877   -3.9425 C.ar     1 ZINC000084687355   -0.1000
10     C10     0.4071   -1.3990   -4.4451 C.ar     1 ZINC000084687355   -0.0200
11     Cl11    0.9356   -1.0895   -6.0695 Cl       1 ZINC000084687355   -0.0600
12     C12    -0.0413   -0.3572   -3.6529 C.ar     1 ZINC000084687355   -0.1000
13     C13    -0.4677   -0.6052   -2.3617 C.ar     1 ZINC000084687355   -0.0800
14     N14    -2.2356   -2.7510   -0.4755 N.am     1 ZINC000084687355   -0.5700
15     C15    -3.2125   -2.1797    0.2270 C.2      1 ZINC000084687355    0.5700
16     O16    -2.9376   -1.1907    0.8787 O.2      1 ZINC000084687355   -0.5100
17     C17    -4.5979   -2.6619    0.2681 C.ar     1 ZINC000084687355   -0.1000
18     C18    -5.6214   -1.6998    0.2491 C.ar     1 ZINC000084687355   -0.0800
19     C19    -6.9431   -2.0846    0.2809 C.ar     1 ZINC000084687355    0.1000
20     F20    -7.9192   -1.1507    0.2623 F        1 ZINC000084687355   -0.1300
21     C21    -7.2723   -3.4312    0.3316 C.ar     1 ZINC000084687355   -0.1000
22     C22    -6.2796   -4.3851    0.3531 C.ar     1 ZINC000084687355   -0.1100
23     C23    -4.9329   -4.0144    0.3246 C.ar     1 ZINC000084687355    0.1500
24     N24    -3.9950   -5.0313    0.3599 N.am     1 ZINC000084687355   -0.5900
25     C25    -2.8740   -5.0753   -0.3538 C.2      1 ZINC000084687355    0.2500
26     S26    -1.9273   -6.3583   -0.2332 S.2      1 ZINC000084687355   -0.3400
27     C27    -2.4725   -3.9507   -1.2784 C.3      1 ZINC000084687355    0.2000
28     H28    -1.5581   -4.2211   -1.8065 H        1 ZINC000084687355    0.1500
29     C29    -3.5749   -3.6979   -2.2743 C.ar     1 ZINC000084687355   -0.1100
30     C30    -3.8346   -2.4104   -2.7055 C.ar     1 ZINC000084687355   -0.0800
31     C31    -4.8455   -2.1780   -3.6189 C.ar     1 ZINC000084687355   -0.1000
32     C32    -5.5976   -3.2341   -4.1017 C.ar     1 ZINC000084687355   -0.0200
33     Cl33   -6.8671   -2.9430   -5.2494 Cl       1 ZINC000084687355   -0.0600
34     C34    -5.3372   -4.5224   -3.6697 C.ar     1 ZINC000084687355   -0.1000
35     C35    -4.3223   -4.7543   -2.7606 C.ar     1 ZINC000084687355   -0.0900
36     H36     3.2336   -3.3626    1.0537 H        1 ZINC000084687355    0.1000
37     H37     1.8543   -3.9434    2.0172 H        1 ZINC000084687355    0.0600
38     H38     2.2126   -4.6848    0.4392 H        1 ZINC000084687355    0.0700
39     H39     0.0333   -3.9395   -2.2567 H        1 ZINC000084687355    0.1300
40     H40     0.7839   -3.5014   -4.5603 H        1 ZINC000084687355    0.1400
41     H41    -0.0620    0.6490   -4.0446 H        1 ZINC000084687355    0.1400
42     H42    -0.8181    0.2079   -1.7433 H        1 ZINC000084687355    0.1400
43     H43    -5.3696   -0.6503    0.2098 H        1 ZINC000084687355    0.1500
44     H44    -8.3093   -3.7320    0.3546 H        1 ZINC000084687355    0.1500
45     H45    -6.5449   -5.4313    0.3933 H        1 ZINC000084687355    0.1500
46     H46    -4.1703   -5.7756    0.9567 H        1 ZINC000084687355    0.4300
47     H47    -3.2477   -1.5860   -2.3283 H        1 ZINC000084687355    0.1300
48     H48    -5.0486   -1.1720   -3.9555 H        1 ZINC000084687355    0.1400
49     H49    -5.9241   -5.3473   -4.0460 H        1 ZINC000084687355    0.1400
50     H50    -4.1187   -5.7600   -2.4236 H        1 ZINC000084687355    0.1300
@<TRIPOS>BOND
1     1     2     1
2     1     36    1
3     1     37    1
4     1     38    1
5     2     3     1
6     3     4     2
7     3     5     1
8     5     6     1
9     5     7     1
10    5     14    1
11    7     13    ar
12    7     8     ar
13    8     9     ar
14    8     39    1
15    9     10    ar
16    9     40    1
17    10    11    1
18    10    12    ar
19    12    13    ar
20    12    41    1
21    13    42    1
22    14    27    1
23    14    15    am
24    15    16    2
25    15    17    1
26    17    23    ar
27    17    18    ar
28    18    19    ar
29    18    43    1
30    19    20    1
31    19    21    ar
32    21    22    ar
33    21    44    1
34    22    23    ar
35    22    45    1
36    23    24    1
37    24    25    am
38    24    46    1
39    25    26    2
40    25    27    1
41    27    28    1
42    27    29    1
43    29    35    ar
44    29    30    ar
45    30    31    ar
46    30    47    1
47    31    32    ar
48    31    48    1
49    32    33    1
50    32    34    ar
51    34    35    ar
52    34    49    1
53    35    50    1
@<TRIPOS>SUBSTRUCTURE
1   ZINC000084687355 1     RESIDUE    1   A     ZIN   1


@<TRIPOS>MOLECULE
O=C(C(C=C(I)C=C1)=C1N2)N([C@@H](C(O)=O)C3=CC=C(Cl)C=C3)[C@@H](C4=CC=C(Cl)C=C4)C2=O
46    49    1     0     0
SMALL
USER_CHARGES
@<TRIPOS>ATOM
1      O1     -1.2255    3.1174    1.6481 O.co2    1 ZINC000016051338   -0.6600
2      C2     -1.7387    2.0819    1.2596 C.2      1 ZINC000016051338    0.4900
3      O3     -1.5087    1.0333    1.8376 O.co2    1 ZINC000016051338   -0.6800
4      C4     -2.6622    2.0991    0.0688 C.3      1 ZINC000016051338    0.0900
5      H5     -3.4028    1.3061    0.1719 H        1 ZINC000016051338    0.1200
6      C6     -1.8630    1.8796   -1.1898 C.ar     1 ZINC000016051338   -0.0600
7      C7     -0.6440    2.5107   -1.3532 C.ar     1 ZINC000016051338   -0.0900
8      C8      0.0894    2.3098   -2.5073 C.ar     1 ZINC000016051338   -0.1100
9      C9     -0.3967    1.4767   -3.4992 C.ar     1 ZINC000016051338   -0.0400
10     Cl10    0.5241    1.2233   -4.9489 Cl       1 ZINC000016051338   -0.0800
11     C11    -1.6168    0.8453   -3.3351 C.ar     1 ZINC000016051338   -0.1100
12     C12    -2.3466    1.0426   -2.1781 C.ar     1 ZINC000016051338   -0.1000
13     N13    -3.3413    3.3952   -0.0038 N.am     1 ZINC000016051338   -0.5500
14     C14    -4.6591    3.4508    0.1821 C.2      1 ZINC000016051338    0.5500
15     O15    -5.2417    2.4107    0.4211 O.2      1 ZINC000016051338   -0.5300
16     C16    -5.4560    4.6816    0.1187 C.ar     1 ZINC000016051338   -0.1300
17     C17    -6.7130    4.6104   -0.5040 C.ar     1 ZINC000016051338   -0.0100
18     C18    -7.5085    5.7285   -0.6018 C.ar     1 ZINC000016051338   -0.1300
19     I19    -9.3804    5.6034   -1.5340 I        1 ZINC000016051338   -0.0400
20     C20    -7.0723    6.9374   -0.0835 C.ar     1 ZINC000016051338   -0.0400
21     C21    -5.8434    7.0229    0.5321 C.ar     1 ZINC000016051338   -0.1500
22     C22    -5.0220    5.8984    0.6437 C.ar     1 ZINC000016051338    0.2200
23     N23    -3.8066    6.0623    1.2851 N.am     1 ZINC000016051338   -0.6700
24     C24    -2.6525    5.5220    0.9055 C.2      1 ZINC000016051338    0.5300
25     O25    -1.6470    5.7815    1.5321 O.2      1 ZINC000016051338   -0.4700
26     C26    -2.5559    4.5996   -0.2729 C.3      1 ZINC000016051338    0.1800
27     H27    -1.5137    4.3273   -0.4390 H        1 ZINC000016051338    0.1500
28     C28    -3.0993    5.2879   -1.4985 C.ar     1 ZINC000016051338   -0.1000
29     C29    -3.2098    6.6656   -1.5254 C.ar     1 ZINC000016051338   -0.1000
30     C30    -3.7081    7.2974   -2.6492 C.ar     1 ZINC000016051338   -0.1000
31     C31    -4.0963    6.5507   -3.7473 C.ar     1 ZINC000016051338   -0.0300
32     Cl32   -4.7217    7.3435   -5.1594 Cl       1 ZINC000016051338   -0.0700
33     C33    -3.9855    5.1719   -3.7198 C.ar     1 ZINC000016051338   -0.1000
34     C34    -3.4818    4.5416   -2.5975 C.ar     1 ZINC000016051338   -0.0800
35     H35    -0.2648    3.1613   -0.5790 H        1 ZINC000016051338    0.1500
36     H36     1.0415    2.8032   -2.6350 H        1 ZINC000016051338    0.1300
37     H37    -1.9969    0.1951   -4.1092 H        1 ZINC000016051338    0.1300
38     H38    -3.2989    0.5495   -2.0497 H        1 ZINC000016051338    0.1300
39     H39    -7.0576    3.6706   -0.9095 H        1 ZINC000016051338    0.1400
40     H40    -7.6973    7.8146   -0.1628 H        1 ZINC000016051338    0.1400
41     H41    -5.5114    7.9690    0.9332 H        1 ZINC000016051338    0.1400
42     H42    -3.7957    6.6192    2.0792 H        1 ZINC000016051338    0.4100
43     H43    -2.9070    7.2484   -0.6680 H        1 ZINC000016051338    0.1300
44     H44    -3.7947    8.3737   -2.6700 H        1 ZINC000016051338    0.1300
45     H45    -4.2887    4.5884   -4.5765 H        1 ZINC000016051338    0.1300
46     H46    -3.3949    3.4653   -2.5760 H        1 ZINC000016051338    0.1300
@<TRIPOS>BOND
1     1     2     ar
2     2     3     ar
3     2     4     1
4     4     5     1
5     4     6     1
6     4     13    1
7     6     12    ar
8     6     7     ar
9     7     8     ar
10    7     35    1
11    8     9     ar
12    8     36    1
13    9     10    1
14    9     11    ar
15    11    12    ar
16    11    37    1
17    12    38    1
18    13    26    1
19    13    14    am
20    14    15    2
21    14    16    1
22    16    22    ar
23    16    17    ar
24    17    18    ar
25    17    39    1
26    18    19    1
27    18    20    ar
28    20    21    ar
29    20    40    1
30    21    22    ar
31    21    41    1
32    22    23    1
33    23    24    am
34    23    42    1
35    24    25    2
36    24    26    1
37    26    27    1
38    26    28    1
39    28    34    ar
40    28    29    ar
41    29    30    ar
42    29    43    1
43    30    31    ar
44    30    44    1
45    31    32    1
46    31    33    ar
47    33    34    ar
48    33    45    1
49    34    46    1
@<TRIPOS>SUBSTRUCTURE
1   ZINC000016051338 1     RESIDUE    1   A     ZIN   1


@<TRIPOS>MOLECULE
O=C([C@H](C1=CC=C(Cl)C=C1)N([C@H](C)C2=C(N)C=C(Cl)C=C2)C(C3=C4C=CC(I)=C3)=O)N4CCCN5CCN(C)CC5
76    80    1     0     0
SMALL
USER_CHARGES
@<TRIPOS>ATOM
1      C1      0.9473   -1.2088    0.0665 C.3      1 ZINC000038377629   -0.1600
2      C2     -0.0230   -0.0262    0.0349 C.3      1 ZINC000038377629    0.1800
3      H3      0.1724    0.5805   -0.8494 H        1 ZINC000038377629    0.1200
4      C4      0.1676    0.8131    1.2720 C.ar     1 ZINC000038377629   -0.1900
5      C5      0.8084    0.2832    2.3744 C.ar     1 ZINC000038377629   -0.0500
6      C6      0.9835    1.0520    3.5105 C.ar     1 ZINC000038377629   -0.1700
7      C7      0.5173    2.3545    3.5466 C.ar     1 ZINC000038377629    0.0300
8      Cl8     0.7394    3.3159    4.9750 Cl       1 ZINC000038377629   -0.0600
9      C9     -0.1246    2.8908    2.4460 C.ar     1 ZINC000038377629   -0.1900
10     C10    -0.2964    2.1224    1.3021 C.ar     1 ZINC000038377629    0.2500
11     N11    -0.9441    2.6611    0.1880 N.pl3    1 ZINC000038377629   -0.8700
12     N12    -1.3997   -0.5250   -0.0095 N.am     1 ZINC000038377629   -0.5800
13     C13    -2.1431   -0.2887   -1.0892 C.2      1 ZINC000038377629    0.5600
14     O14    -1.6318    0.3257   -2.0055 O.2      1 ZINC000038377629   -0.5300
15     C15    -3.5369   -0.7196   -1.2489 C.ar     1 ZINC000038377629   -0.1400
16     C16    -4.4277    0.1762   -1.8629 C.ar     1 ZINC000038377629   -0.0100
17     C17    -5.7491   -0.1630   -2.0389 C.ar     1 ZINC000038377629   -0.1200
18     I18    -7.0632    1.1860   -2.9567 I        1 ZINC000038377629   -0.0100
19     C19    -6.2114   -1.3969   -1.6098 C.ar     1 ZINC000038377629   -0.0300
20     C20    -5.3500   -2.2872   -1.0083 C.ar     1 ZINC000038377629   -0.1500
21     C21    -4.0043   -1.9621   -0.8219 C.ar     1 ZINC000038377629    0.2100
22     N22    -3.1998   -2.9137   -0.2196 N.am     1 ZINC000038377629   -0.5400
23     C23    -3.4009   -4.3094   -0.6167 C.3      1 ZINC000038377629    0.0900
24     C24    -2.4962   -4.6366   -1.8063 C.3      1 ZINC000038377629   -0.1400
25     C25    -2.7062   -6.0943   -2.2210 C.3      1 ZINC000038377629    0.0600
26     N26    -1.8375   -6.4085   -3.3632 N.3      1 ZINC000038377629   -0.5400
27     C27    -1.9082   -5.3539   -4.3845 C.3      1 ZINC000038377629    0.0200
28     C28    -0.9466   -5.6890   -5.5267 C.3      1 ZINC000038377629    0.0000
29     N29    -1.3132   -6.9857   -6.1111 N.4      1 ZINC000038377629   -0.3900
30     H30    -2.2600   -6.9428   -6.4573 H        1 ZINC000038377629    0.4200
31     C31    -0.4008   -7.2987   -7.2191 C.3      1 ZINC000038377629   -0.0500
32     C32    -1.2141   -8.0325   -5.0855 C.3      1 ZINC000038377629    0.0000
33     C33    -2.1779   -7.7170   -3.9396 C.3      1 ZINC000038377629    0.0300
34     C34    -2.2596   -2.6694    0.6884 C.2      1 ZINC000038377629    0.5200
35     O35    -1.6523   -3.6011    1.1720 O.2      1 ZINC000038377629   -0.5000
36     C36    -1.9248   -1.2765    1.1304 C.3      1 ZINC000038377629    0.1700
37     H37    -1.1745   -1.3145    1.9202 H        1 ZINC000038377629    0.1500
38     C38    -3.1675   -0.5983    1.6469 C.ar     1 ZINC000038377629   -0.1100
39     C39    -4.1635   -1.3455    2.2476 C.ar     1 ZINC000038377629   -0.0900
40     C40    -5.3035   -0.7241    2.7215 C.ar     1 ZINC000038377629   -0.1000
41     C41    -5.4477    0.6460    2.5946 C.ar     1 ZINC000038377629   -0.0200
42     Cl42   -6.8790    1.4274    3.1900 Cl       1 ZINC000038377629   -0.0600
43     C43    -4.4506    1.3933    1.9933 C.ar     1 ZINC000038377629   -0.1000
44     C44    -3.3085    0.7714    1.5249 C.ar     1 ZINC000038377629   -0.0900
45     H45     1.9716   -0.8376    0.0995 H        1 ZINC000038377629    0.0800
46     H46     0.7520   -1.8154    0.9507 H        1 ZINC000038377629    0.0700
47     H47     0.8095   -1.8158   -0.8283 H        1 ZINC000038377629    0.0600
48     H48     1.1730   -0.7330    2.3495 H        1 ZINC000038377629    0.1400
49     H49     1.4847    0.6350    4.3714 H        1 ZINC000038377629    0.1300
50     H50    -0.4883    3.9073    2.4743 H        1 ZINC000038377629    0.1400
51     H51    -1.2745    3.5728    0.2128 H        1 ZINC000038377629    0.4000
52     H52    -1.0636    2.1235   -0.6105 H        1 ZINC000038377629    0.4000
53     H53    -4.0724    1.1391   -2.1991 H        1 ZINC000038377629    0.1400
54     H54    -7.2496   -1.6608   -1.7471 H        1 ZINC000038377629    0.1400
55     H55    -5.7188   -3.2466   -0.6768 H        1 ZINC000038377629    0.1400
56     H56    -3.1535   -4.9641    0.2189 H        1 ZINC000038377629    0.1100
57     H57    -4.4426   -4.4600   -0.9002 H        1 ZINC000038377629    0.0900
58     H58    -2.7435   -3.9819   -2.6419 H        1 ZINC000038377629    0.0700
59     H59    -1.4545   -4.4861   -1.5227 H        1 ZINC000038377629    0.0800
60     H60    -2.4588   -6.7491   -1.3854 H        1 ZINC000038377629    0.1000
61     H61    -3.7479   -6.2449   -2.5045 H        1 ZINC000038377629    0.0500
62     H62    -2.9250   -5.2904   -4.7719 H        1 ZINC000038377629    0.0600
63     H63    -1.6273   -4.3987   -3.9409 H        1 ZINC000038377629    0.1300
64     H64    -1.0079   -4.9152   -6.2920 H        1 ZINC000038377629    0.1400
65     H65     0.0718   -5.7390   -5.1415 H        1 ZINC000038377629    0.1400
66     H66     0.6221   -7.3446   -6.8455 H        1 ZINC000038377629    0.1200
67     H67    -0.6727   -8.2610   -7.6529 H        1 ZINC000038377629    0.1200
68     H68    -0.4749   -6.5227   -7.9810 H        1 ZINC000038377629    0.1200
69     H69    -1.4738   -8.9962   -5.5237 H        1 ZINC000038377629    0.1400
70     H70    -0.1943   -8.0705   -4.7025 H        1 ZINC000038377629    0.1400
71     H71    -2.0938   -8.4857   -3.1714 H        1 ZINC000038377629    0.1200
72     H72    -3.1992   -7.6924   -4.3196 H        1 ZINC000038377629    0.0600
73     H73    -4.0509   -2.4151    2.3462 H        1 ZINC000038377629    0.1300
74     H74    -6.0817   -1.3080    3.1904 H        1 ZINC000038377629    0.1400
75     H75    -4.5628    2.4628    1.8937 H        1 ZINC000038377629    0.1400
76     H76    -2.5299    1.3547    1.0558 H        1 ZINC000038377629    0.1400
@<TRIPOS>BOND
1     1     2     1
2     1     45    1
3     1     46    1
4     1     47    1
5     2     3     1
6     2     4     1
7     2     12    1
8     4     10    ar
9     4     5     ar
10    5     6     ar
11    5     48    1
12    6     7     ar
13    6     49    1
14    7     8     1
15    7     9     ar
16    9     10    ar
17    9     50    1
18    10    11    1
19    11    51    1
20    11    52    1
21    12    36    1
22    12    13    am
23    13    14    2
24    13    15    1
25    15    21    ar
26    15    16    ar
27    16    17    ar
28    16    53    1
29    17    18    1
30    17    19    ar
31    19    20    ar
32    19    54    1
33    20    21    ar
34    20    55    1
35    21    22    1
36    22    23    1
37    22    34    am
38    23    24    1
39    23    56    1
40    23    57    1
41    24    25    1
42    24    58    1
43    24    59    1
44    25    26    1
45    25    60    1
46    25    61    1
47    26    33    1
48    26    27    1
49    27    28    1
50    27    62    1
51    27    63    1
52    28    29    1
53    28    64    1
54    28    65    1
55    29    30    1
56    29    31    1
57    29    32    1
58    31    66    1
59    31    67    1
60    31    68    1
61    32    33    1
62    32    69    1
63    32    70    1
64    33    71    1
65    33    72    1
66    34    35    2
67    34    36    1
68    36    37    1
69    36    38    1
70    38    44    ar
71    38    39    ar
72    39    40    ar
73    39    73    1
74    40    41    ar
75    40    74    1
76    41    42    1
77    41    43    ar
78    43    44    ar
79    43    75    1
80    44    76    1
@<TRIPOS>SUBSTRUCTURE
1   ZINC000038377629 1     RESIDUE    1   A     ZIN   1


@<TRIPOS>MOLECULE
O=C(C(C=CC(C(F)(F)F)=C1)=C1N2)N(C(C(OC)=O)C3=CC=C(Cl)C=C3)C(C4=CC=C(Cl)C=C4)C2=S
53    56    1     0     0
SMALL
USER_CHARGES
@<TRIPOS>ATOM
1      C1      2.2172   -3.7502    1.0106 C.3      1 ZINC000084688294    0.0400
2      O2      1.3539   -2.7817    0.3586 O.3      1 ZINC000084688294   -0.3500
3      C3      0.0609   -3.1141    0.2199 C.2      1 ZINC000084688294    0.4400
4      O4     -0.3365   -4.1791    0.6296 O.2      1 ZINC000084688294   -0.4700
5      C5     -0.8953   -2.1591   -0.4470 C.3      1 ZINC000084688294    0.1900
6      H6     -0.9224   -1.2232    0.1111 H        1 ZINC000084688294    0.1600
7      C7     -0.4352   -1.8901   -1.8566 C.ar     1 ZINC000084688294   -0.1000
8      C8      0.0137   -2.9314   -2.6474 C.ar     1 ZINC000084688294   -0.0900
9      C9      0.4358   -2.6853   -3.9403 C.ar     1 ZINC000084688294   -0.1000
10     C10     0.4090   -1.3967   -4.4431 C.ar     1 ZINC000084688294   -0.0200
11     Cl11    0.9384   -1.0869   -6.0671 Cl       1 ZINC000084688294   -0.0600
12     C12    -0.0404   -0.3550   -3.6512 C.ar     1 ZINC000084688294   -0.1000
13     C13    -0.4676   -0.6031   -2.3603 C.ar     1 ZINC000084688294   -0.0800
14     N14    -2.2355   -2.7499   -0.4751 N.am     1 ZINC000084688294   -0.5700
15     C15    -3.2134   -2.1793    0.2267 C.2      1 ZINC000084688294    0.5700
16     O16    -2.9400   -1.1893    0.8777 O.2      1 ZINC000084688294   -0.5100
17     C17    -4.5981   -2.6633    0.2675 C.ar     1 ZINC000084688294   -0.1000
18     C18    -5.6231   -1.7030    0.2482 C.ar     1 ZINC000084688294   -0.0400
19     C19    -6.9424   -2.0891    0.2791 C.ar     1 ZINC000084688294   -0.0800
20     C20    -7.2707   -3.4341    0.3299 C.ar     1 ZINC000084688294   -0.1300
21     C21    -8.7176   -3.8541    0.3606 C.3      1 ZINC000084688294    0.5100
22     F22    -9.5337   -2.7182    0.3298 F        1 ZINC000084688294   -0.1700
23     F23    -8.9938   -4.6571   -0.7513 F        1 ZINC000084688294   -0.1700
24     F24    -8.9686   -4.5770    1.5317 F        1 ZINC000084688294   -0.1700
25     C25    -6.2779   -4.3881    0.3519 C.ar     1 ZINC000084688294   -0.0900
26     C26    -4.9313   -4.0165    0.3233 C.ar     1 ZINC000084688294    0.1600
27     N27    -3.9931   -5.0316    0.3596 N.am     1 ZINC000084688294   -0.5900
28     C28    -2.8721   -5.0753   -0.3542 C.2      1 ZINC000084688294    0.2400
29     S29    -1.9247   -6.3577   -0.2332 S.2      1 ZINC000084688294   -0.3300
30     C30    -2.4711   -3.9499   -1.2780 C.3      1 ZINC000084688294    0.2000
31     H31    -1.5569   -4.2196   -1.8067 H        1 ZINC000084688294    0.1500
32     C32    -3.5739   -3.6966   -2.2734 C.ar     1 ZINC000084688294   -0.1100
33     C33    -3.8335   -2.4090   -2.7042 C.ar     1 ZINC000084688294   -0.0800
34     C34    -4.8447   -2.1761   -3.6172 C.ar     1 ZINC000084688294   -0.1000
35     C35    -5.5972   -3.2319   -4.0998 C.ar     1 ZINC000084688294   -0.0200
36     Cl36   -6.8672   -2.9403   -5.2469 Cl       1 ZINC000084688294   -0.0600
37     C37    -5.3370   -4.5204   -3.6683 C.ar     1 ZINC000084688294   -0.1000
38     C38    -4.3217   -4.7527   -2.7596 C.ar     1 ZINC000084688294   -0.0900
39     H39     3.2330   -3.3576    1.0579 H        1 ZINC000084688294    0.1000
40     H40     1.8534   -3.9393    2.0206 H        1 ZINC000084688294    0.0600
41     H41     2.2133   -4.6806    0.4429 H        1 ZINC000084688294    0.0700
42     H42     0.0350   -3.9372   -2.2548 H        1 ZINC000084688294    0.1300
43     H43     0.7869   -3.4988   -4.5579 H        1 ZINC000084688294    0.1400
44     H44    -0.0613    0.6512   -4.0430 H        1 ZINC000084688294    0.1400
45     H45    -0.8187    0.2099   -1.7422 H        1 ZINC000084688294    0.1400
46     H46    -5.3730   -0.6532    0.2083 H        1 ZINC000084688294    0.1500
47     H47    -7.7234   -1.3433    0.2643 H        1 ZINC000084688294    0.1600
48     H48    -6.5429   -5.4344    0.3919 H        1 ZINC000084688294    0.1500
49     H49    -4.1675   -5.7754    0.9573 H        1 ZINC000084688294    0.4300
50     H50    -3.2462   -1.5848   -2.3271 H        1 ZINC000084688294    0.1300
51     H51    -5.0477   -1.1700   -3.9534 H        1 ZINC000084688294    0.1400
52     H52    -5.9243   -5.3450   -4.0445 H        1 ZINC000084688294    0.1400
53     H53    -4.1182   -5.7585   -2.4229 H        1 ZINC000084688294    0.1300
@<TRIPOS>BOND
1     1     2     1
2     1     39    1
3     1     40    1
4     1     41    1
5     2     3     1
6     3     4     2
7     3     5     1
8     5     6     1
9     5     7     1
10    5     14    1
11    7     13    ar
12    7     8     ar
13    8     9     ar
14    8     42    1
15    9     10    ar
16    9     43    1
17    10    11    1
18    10    12    ar
19    12    13    ar
20    12    44    1
21    13    45    1
22    14    30    1
23    14    15    am
24    15    16    2
25    15    17    1
26    17    26    ar
27    17    18    ar
28    18    19    ar
29    18    46    1
30    19    20    ar
31    19    47    1
32    20    21    1
33    20    25    ar
34    21    22    1
35    21    23    1
36    21    24    1
37    25    26    ar
38    25    48    1
39    26    27    1
40    27    28    am
41    27    49    1
42    28    29    2
43    28    30    1
44    30    31    1
45    30    32    1
46    32    38    ar
47    32    33    ar
48    33    34    ar
49    33    50    1
50    34    35    ar
51    34    51    1
52    35    36    1
53    35    37    ar
54    37    38    ar
55    37    52    1
56    38    53    1
@<TRIPOS>SUBSTRUCTURE
1   ZINC000084688294 1     RESIDUE    1   A     ZIN   1


@<TRIPOS>MOLECULE
O=C(C(C=C(F)C=C1)=C1N2)N(C(C(OC)=O)C3=CC=C(Cl)C=C3)C(C4=CC=C(Cl)C=C4)C2=S
50    53    1     0     0
SMALL
USER_CHARGES
@<TRIPOS>ATOM
1      C1      2.2175   -3.7544    1.0071 C.3      1 ZINC000084687355    0.0400
2      O2      1.3544   -2.7853    0.3558 O.3      1 ZINC000084687355   -0.3500
3      C3      0.0611   -3.1168    0.2179 C.2      1 ZINC000084687355    0.4400
4      O4     -0.3367   -4.1815    0.6278 O.2      1 ZINC000084687355   -0.4700
5      C5     -0.8949   -2.1610   -0.4482 C.3      1 ZINC000084687355    0.1900
6      H6     -0.9210   -1.2252    0.1100 H        1 ZINC000084687355    0.1600
7      C7     -0.4356   -1.8922   -1.8582 C.ar     1 ZINC000084687355   -0.1000
8      C8      0.0123   -2.9336   -2.6493 C.ar     1 ZINC000084687355   -0.0900
9      C9      0.4337   -2.6877   -3.9425 C.ar     1 ZINC000084687355   -0.1000
10     C10     0.4071   -1.3990   -4.4451 C.ar     1 ZINC000084687355   -0.0200
11     Cl11    0.9356   -1.0895   -6.0695 Cl       1 ZINC000084687355   -0.0600
12     C12    -0.0413   -0.3572   -3.6529 C.ar     1 ZINC000084687355   -0.1000
13     C13    -0.4677   -0.6052   -2.3617 C.ar     1 ZINC000084687355   -0.0800
14     N14    -2.2356   -2.7510   -0.4755 N.am     1 ZINC000084687355   -0.5700
15     C15    -3.2125   -2.1797    0.2270 C.2      1 ZINC000084687355    0.5700
16     O16    -2.9376   -1.1907    0.8787 O.2      1 ZINC000084687355   -0.5100
17     C17    -4.5979   -2.6619    0.2681 C.ar     1 ZINC000084687355   -0.1000
18     C18    -5.6214   -1.6998    0.2491 C.ar     1 ZINC000084687355   -0.0800
19     C19    -6.9431   -2.0846    0.2809 C.ar     1 ZINC000084687355    0.1000
20     F20    -7.9192   -1.1507    0.2623 F        1 ZINC000084687355   -0.1300
21     C21    -7.2723   -3.4312    0.3316 C.ar     1 ZINC000084687355   -0.1000
22     C22    -6.2796   -4.3851    0.3531 C.ar     1 ZINC000084687355   -0.1100
23     C23    -4.9329   -4.0144    0.3246 C.ar     1 ZINC000084687355    0.1500
24     N24    -3.9950   -5.0313    0.3599 N.am     1 ZINC000084687355   -0.5900
25     C25    -2.8740   -5.0753   -0.3538 C.2      1 ZINC000084687355    0.2500
26     S26    -1.9273   -6.3583   -0.2332 S.2      1 ZINC000084687355   -0.3400
27     C27    -2.4725   -3.9507   -1.2784 C.3      1 ZINC000084687355    0.2000
28     H28    -1.5581   -4.2211   -1.8065 H        1 ZINC000084687355    0.1500
29     C29    -3.5749   -3.6979   -2.2743 C.ar     1 ZINC000084687355   -0.1100
30     C30    -3.8346   -2.4104   -2.7055 C.ar     1 ZINC000084687355   -0.0800
31     C31    -4.8455   -2.1780   -3.6189 C.ar     1 ZINC000084687355   -0.1000
32     C32    -5.5976   -3.2341   -4.1017 C.ar     1 ZINC000084687355   -0.0200
33     Cl33   -6.8671   -2.9430   -5.2494 Cl       1 ZINC000084687355   -0.0600
34     C34    -5.3372   -4.5224   -3.6697 C.ar     1 ZINC000084687355   -0.1000
35     C35    -4.3223   -4.7543   -2.7606 C.ar     1 ZINC000084687355   -0.0900
36     H36     3.2336   -3.3626    1.0537 H        1 ZINC000084687355    0.1000
37     H37     1.8543   -3.9434    2.0172 H        1 ZINC000084687355    0.0600
38     H38     2.2126   -4.6848    0.4392 H        1 ZINC000084687355    0.0700
39     H39     0.0333   -3.9395   -2.2567 H        1 ZINC000084687355    0.1300
40     H40     0.7839   -3.5014   -4.5603 H        1 ZINC000084687355    0.1400
41     H41    -0.0620    0.6490   -4.0446 H        1 ZINC000084687355    0.1400
42     H42    -0.8181    0.2079   -1.7433 H        1 ZINC000084687355    0.1400
43     H43    -5.3696   -0.6503    0.2098 H        1 ZINC000084687355    0.1500
44     H44    -8.3093   -3.7320    0.3546 H        1 ZINC000084687355    0.1500
45     H45    -6.5449   -5.4313    0.3933 H        1 ZINC000084687355    0.1500
46     H46    -4.1703   -5.7756    0.9567 H        1 ZINC000084687355    0.4300
47     H47    -3.2477   -1.5860   -2.3283 H        1 ZINC000084687355    0.1300
48     H48    -5.0486   -1.1720   -3.9555 H        1 ZINC000084687355    0.1400
49     H49    -5.9241   -5.3473   -4.0460 H        1 ZINC000084687355    0.1400
50     H50    -4.1187   -5.7600   -2.4236 H        1 ZINC000084687355    0.1300
@<TRIPOS>BOND
1     1     2     1
2     1     36    1
3     1     37    1
4     1     38    1
5     2     3     1
6     3     4     2
7     3     5     1
8     5     6     1
9     5     7     1
10    5     14    1
11    7     13    ar
12    7     8     ar
13    8     9     ar
14    8     39    1
15    9     10    ar
16    9     40    1
17    10    11    1
18    10    12    ar
19    12    13    ar
20    12    41    1
21    13    42    1
22    14    27    1
23    14    15    am
24    15    16    2
25    15    17    1
26    17    23    ar
27    17    18    ar
28    18    19    ar
29    18    43    1
30    19    20    1
31    19    21    ar
32    21    22    ar
33    21    44    1
34    22    23    ar
35    22    45    1
36    23    24    1
37    24    25    am
38    24    46    1
39    25    26    2
40    25    27    1
41    27    28    1
42    27    29    1
43    29    35    ar
44    29    30    ar
45    30    31    ar
46    30    47    1
47    31    32    ar
48    31    48    1
49    32    33    1
50    32    34    ar
51    34    35    ar
52    34    49    1
53    35    50    1
@<TRIPOS>SUBSTRUCTURE
1   ZINC000084687355 1     RESIDUE    1   A     ZIN   1


@<TRIPOS>MOLECULE
CC(C)(C)C[C@@H](NC(C(NCCN1CCOCC1)=O)[C@@H]2C3=CC=CC(Cl)=C3F)[C@]2(C4=C(N5)C=C(Cl)C=C4)C5=O
75    79    1     0     0
SMALL
USER_CHARGES
@<TRIPOS>ATOM
1      C1      4.0235   -1.0129    2.4307 C.3      1 ZINC000036184574   -0.1600
2      C2      2.6104   -1.5972    2.4845 C.3      1 ZINC000036184574   -0.0700
3      C3      2.6893   -3.0961    2.7812 C.3      1 ZINC000036184574   -0.1700
4      C4      1.8120   -0.9003    3.5880 C.3      1 ZINC000036184574   -0.1500
5      C5      1.9170   -1.3796    1.1382 C.3      1 ZINC000036184574   -0.1400
6      C6      2.7851   -1.9566    0.0182 C.3      1 ZINC000036184574    0.0600
7      H7      3.8104   -1.5980    0.1091 H        1 ZINC000036184574    0.1700
8      N8      2.7500   -3.4437    0.0470 N.4      1 ZINC000036184574   -0.5100
9      H9      3.4223   -3.7993    0.7100 H        1 ZINC000036184574    0.4400
10     H10     1.8230   -3.7700    0.2757 H        1 ZINC000036184574    0.4400
11     C11     3.1193   -3.8485   -1.3347 C.3      1 ZINC000036184574    0.0100
12     H12     4.1997   -3.7971   -1.4699 H        1 ZINC000036184574    0.1700
13     C13     2.6201   -5.2403   -1.6257 C.2      1 ZINC000036184574    0.5100
14     O14     1.7262   -5.7159   -0.9580 O.2      1 ZINC000036184574   -0.5100
15     N15     3.1669   -5.9566   -2.6279 N.am     1 ZINC000036184574   -0.7000
16     C16     2.6368   -7.2827   -2.9545 C.3      1 ZINC000036184574    0.1100
17     C17     3.4293   -7.8757   -4.1211 C.3      1 ZINC000036184574    0.0400
18     N18     2.8978   -9.2054   -4.4485 N.3      1 ZINC000036184574   -0.5300
19     C19     2.7018  -10.0084   -3.2328 C.3      1 ZINC000036184574    0.0100
20     C20     2.0924  -11.3604   -3.6134 C.3      1 ZINC000036184574    0.0600
21     O21     2.9432  -12.0113   -4.5609 O.3      1 ZINC000036184574   -0.3800
22     C22     3.1552  -11.2573   -5.7575 C.3      1 ZINC000036184574    0.0600
23     C23     3.7754   -9.9043   -5.3986 C.3      1 ZINC000036184574    0.0200
24     C24     2.4125   -2.8181   -2.2455 C.3      1 ZINC000036184574   -0.0200
25     H25     1.4526   -3.2071   -2.5854 H        1 ZINC000036184574    0.1300
26     C26     3.2854   -2.4736   -3.4246 C.ar     1 ZINC000036184574   -0.1300
27     C27     4.6519   -2.3494   -3.2599 C.ar     1 ZINC000036184574   -0.0900
28     C28     5.4537   -2.0338   -4.3412 C.ar     1 ZINC000036184574   -0.1100
29     C29     4.8900   -1.8415   -5.5884 C.ar     1 ZINC000036184574   -0.0600
30     C30     3.5226   -1.9648   -5.7560 C.ar     1 ZINC000036184574   -0.0700
31     Cl31    2.8141   -1.7229   -7.3223 Cl       1 ZINC000036184574   -0.0200
32     C32     2.7193   -2.2871   -4.6741 C.ar     1 ZINC000036184574    0.1400
33     F33     1.3835   -2.4078   -4.8360 F        1 ZINC000036184574   -0.1200
34     C34     2.2068   -1.5852   -1.3538 C.3      1 ZINC000036184574   -0.0600
35     C35     0.7519   -1.2166   -1.2519 C.2      1 ZINC000036184574    0.5400
36     O36    -0.1450   -1.9172   -0.8327 O.2      1 ZINC000036184574   -0.4700
37     N37     0.6385    0.0425   -1.7171 N.am     1 ZINC000036184574   -0.6500
38     C38     1.8677    0.5671   -2.1223 C.ar     1 ZINC000036184574    0.1700
39     C39     2.1947    1.8110   -2.6554 C.ar     1 ZINC000036184574   -0.1300
40     C40     3.5038    2.1037   -2.9836 C.ar     1 ZINC000036184574    0.0200
41     Cl41    3.9014    3.6577   -3.6474 Cl       1 ZINC000036184574   -0.0300
42     C42     4.5001    1.1640   -2.7853 C.ar     1 ZINC000036184574   -0.1200
43     C43     4.1825   -0.0747   -2.2564 C.ar     1 ZINC000036184574   -0.0500
44     C44     2.8785   -0.3706   -1.9287 C.ar     1 ZINC000036184574   -0.1500
45     H45     4.5923   -1.5095    1.6446 H        1 ZINC000036184574    0.0500
46     H46     3.9673    0.0549    2.2194 H        1 ZINC000036184574    0.0700
47     H47     4.5175   -1.1680    3.3899 H        1 ZINC000036184574    0.0800
48     H48     2.7424   -3.2509    3.8588 H        1 ZINC000036184574    0.0900
49     H49     1.8026   -3.5919    2.3861 H        1 ZINC000036184574    0.0600
50     H50     3.5792   -3.5134    2.3099 H        1 ZINC000036184574    0.0500
51     H51     1.7558    0.1676    3.3767 H        1 ZINC000036184574    0.0600
52     H52     0.8054   -1.3165    3.6263 H        1 ZINC000036184574    0.0600
53     H53     2.3061   -1.0553    4.5472 H        1 ZINC000036184574    0.0700
54     H54     0.9492   -1.8811    1.1427 H        1 ZINC000036184574    0.1100
55     H55     1.7723   -0.3121    0.9724 H        1 ZINC000036184574    0.1200
56     H56     3.9114   -5.5940   -3.1330 H        1 ZINC000036184574    0.4100
57     H57     2.7272   -7.9342   -2.0853 H        1 ZINC000036184574    0.0900
58     H58     1.5872   -7.1953   -3.2354 H        1 ZINC000036184574    0.0900
59     H59     3.3389   -7.2241   -4.9902 H        1 ZINC000036184574    0.0900
60     H60     4.4789   -7.9630   -3.8402 H        1 ZINC000036184574    0.0500
61     H61     3.6623  -10.1672   -2.7427 H        1 ZINC000036184574    0.0500
62     H62     2.0287   -9.4838   -2.5546 H        1 ZINC000036184574    0.0900
63     H63     1.9982  -11.9809   -2.7223 H        1 ZINC000036184574    0.1000
64     H64     1.1081  -11.2045   -4.0550 H        1 ZINC000036184574    0.0600
65     H65     3.8297  -11.8033   -6.4171 H        1 ZINC000036184574    0.1000
66     H66     2.2018  -11.0984   -6.2614 H        1 ZINC000036184574    0.0600
67     H67     3.8860   -9.3037   -6.3015 H        1 ZINC000036184574    0.0900
68     H68     4.7531  -10.0614   -4.9431 H        1 ZINC000036184574    0.0500
69     H69     5.0938   -2.4986   -2.2858 H        1 ZINC000036184574    0.1400
70     H70     6.5215   -1.9371   -4.2110 H        1 ZINC000036184574    0.1500
71     H71     5.5173   -1.5947   -6.4322 H        1 ZINC000036184574    0.1500
72     H72    -0.1997    0.5282   -1.7653 H        1 ZINC000036184574    0.4300
73     H73     1.4222    2.5491   -2.8132 H        1 ZINC000036184574    0.1500
74     H74     5.5227    1.3967   -3.0430 H        1 ZINC000036184574    0.1500
75     H75     4.9582   -0.8099   -2.1009 H        1 ZINC000036184574    0.1500
@<TRIPOS>BOND
1     1     2     1
2     1     45    1
3     1     46    1
4     1     47    1
5     2     3     1
6     2     4     1
7     2     5     1
8     3     48    1
9     3     49    1
10    3     50    1
11    4     51    1
12    4     52    1
13    4     53    1
14    5     6     1
15    5     54    1
16    5     55    1
17    6     7     1
18    6     34    1
19    6     8     1
20    8     9     1
21    8     10    1
22    8     11    1
23    11    12    1
24    11    13    1
25    11    24    1
26    13    14    2
27    13    15    am
28    15    16    1
29    15    56    1
30    16    17    1
31    16    57    1
32    16    58    1
33    17    18    1
34    17    59    1
35    17    60    1
36    18    23    1
37    18    19    1
38    19    20    1
39    19    61    1
40    19    62    1
41    20    21    1
42    20    63    1
43    20    64    1
44    21    22    1
45    22    23    1
46    22    65    1
47    22    66    1
48    23    67    1
49    23    68    1
50    24    25    1
51    24    26    1
52    24    34    1
53    26    32    ar
54    26    27    ar
55    27    28    ar
56    27    69    1
57    28    29    ar
58    28    70    1
59    29    30    ar
60    29    71    1
61    30    31    1
62    30    32    ar
63    32    33    1
64    34    44    1
65    34    35    1
66    35    36    2
67    35    37    am
68    37    38    1
69    37    72    1
70    38    44    ar
71    38    39    ar
72    39    40    ar
73    39    73    1
74    40    41    1
75    40    42    ar
76    42    43    ar
77    42    74    1
78    43    44    ar
79    43    75    1
@<TRIPOS>SUBSTRUCTURE
1   ZINC000036184574 1     RESIDUE    1   A     ZIN   1


@<TRIPOS>MOLECULE
CC(C)(C)C[C@@H](N[C@@H](C(NCC[C@@H](O)CO)=O)[C@@H]1C2=CC=CC(Cl)=C2)[C@]1(C3=C(N4)C=C(Cl)C(F)=C3)C4=O
70    73    1     0     0
SMALL
USER_CHARGES
@<TRIPOS>ATOM
1      C1      0.3356    1.2069   -0.7552 C.3      1 ZINC000043195318   -0.1600
2      C2     -0.3167   -0.1392   -0.4334 C.3      1 ZINC000043195318   -0.0700
3      C3      0.0612   -0.5624    0.9875 C.3      1 ZINC000043195318   -0.1700
4      C4     -1.8373   -0.0071   -0.5388 C.3      1 ZINC000043195318   -0.1500
5      C5      0.1737   -1.1941   -1.4272 C.3      1 ZINC000043195318   -0.1500
6      C6      1.6924   -1.3382   -1.3100 C.3      1 ZINC000043195318    0.0600
7      H7      2.1721   -0.3609   -1.3642 H        1 ZINC000043195318    0.1700
8      N8      2.0531   -2.0247   -0.0402 N.4      1 ZINC000043195318   -0.5100
9      H9      2.0876   -1.3629    0.7207 H        1 ZINC000043195318    0.4400
10     H10     1.3931   -2.7605    0.1624 H        1 ZINC000043195318    0.4400
11     C11     3.4030   -2.5910   -0.2974 C.3      1 ZINC000043195318    0.0000
12     H12     4.1655   -1.8195   -0.1900 H        1 ZINC000043195318    0.1700
13     C13     3.6800   -3.7363    0.6421 C.2      1 ZINC000043195318    0.5100
14     O14     2.7631   -4.2871    1.2137 O.2      1 ZINC000043195318   -0.5100
15     N15     4.9467   -4.1486    0.8469 N.am     1 ZINC000043195318   -0.7000
16     C16     5.2160   -5.2620    1.7602 C.3      1 ZINC000043195318    0.1200
17     C17     6.7221   -5.5262    1.8121 C.3      1 ZINC000043195318   -0.1600
18     C18     7.0034   -6.6890    2.7659 C.3      1 ZINC000043195318    0.1100
19     H19     6.4200   -7.5579    2.4614 H        1 ZINC000043195318    0.1100
20     O20     6.6394   -6.3131    4.0956 O.3      1 ZINC000043195318   -0.5500
21     C21     8.4932   -7.0346    2.7233 C.3      1 ZINC000043195318    0.0400
22     O22     8.7365   -8.1932    3.5237 O.3      1 ZINC000043195318   -0.5600
23     C23     3.3445   -3.0914   -1.7591 C.3      1 ZINC000043195318   -0.0200
24     H24     3.0959   -4.1523   -1.7876 H        1 ZINC000043195318    0.1300
25     C25     4.6592   -2.8425   -2.4523 C.ar     1 ZINC000043195318   -0.0800
26     C26     5.4927   -1.8320   -2.0109 C.ar     1 ZINC000043195318   -0.1300
27     C27     6.6992   -1.6033   -2.6461 C.ar     1 ZINC000043195318   -0.0900
28     C28     7.0724   -2.3846   -3.7232 C.ar     1 ZINC000043195318   -0.0900
29     C29     6.2385   -3.3964   -4.1655 C.ar     1 ZINC000043195318   -0.0200
30     Cl30    6.7069   -4.3787   -5.5181 Cl       1 ZINC000043195318   -0.0400
31     C31     5.0340   -3.6284   -3.5260 C.ar     1 ZINC000043195318   -0.0900
32     C32     2.2300   -2.2611   -2.4116 C.3      1 ZINC000043195318   -0.0600
33     C33     1.1429   -3.1401   -2.9671 C.2      1 ZINC000043195318    0.5400
34     O34     0.4644   -3.9317   -2.3474 O.2      1 ZINC000043195318   -0.4600
35     N35     1.0692   -2.8775   -4.2862 N.am     1 ZINC000043195318   -0.6400
36     C36     1.9947   -1.9080   -4.6829 C.ar     1 ZINC000043195318    0.1600
37     C37     2.2508   -1.3535   -5.9340 C.ar     1 ZINC000043195318   -0.1000
38     C38     3.2316   -0.3928   -6.0810 C.ar     1 ZINC000043195318   -0.0300
39     Cl39    3.5426    0.2926   -7.6453 Cl       1 ZINC000043195318   -0.0100
40     C40     3.9682    0.0269   -4.9850 C.ar     1 ZINC000043195318    0.1000
41     F41     4.9263    0.9680   -5.1324 F        1 ZINC000043195318   -0.1100
42     C42     3.7188   -0.5216   -3.7373 C.ar     1 ZINC000043195318   -0.0800
43     C43     2.7417   -1.4802   -3.5890 C.ar     1 ZINC000043195318   -0.1200
44     H44     1.4190    1.1128   -0.6801 H        1 ZINC000043195318    0.0500
45     H45     0.0664    1.5083   -1.7674 H        1 ZINC000043195318    0.0700
46     H46    -0.0137    1.9584   -0.0472 H        1 ZINC000043195318    0.0700
47     H47    -0.5907   -0.0597    1.7019 H        1 ZINC000043195318    0.0900
48     H48    -0.0536   -1.6417    1.0878 H        1 ZINC000043195318    0.0600
49     H49     1.0973   -0.2873    1.1851 H        1 ZINC000043195318    0.0500
50     H50    -2.1066    0.2943   -1.5511 H        1 ZINC000043195318    0.0700
51     H51    -2.3021   -0.9661   -0.3095 H        1 ZINC000043195318    0.0600
52     H52    -2.1867    0.7444    0.1692 H        1 ZINC000043195318    0.0700
53     H53    -0.3001   -2.1503   -1.2053 H        1 ZINC000043195318    0.1100
54     H54    -0.0850   -0.8868   -2.4404 H        1 ZINC000043195318    0.1200
55     H55     5.6801   -3.7081    0.3897 H        1 ZINC000043195318    0.4100
56     H56     4.8569   -5.0087    2.7577 H        1 ZINC000043195318    0.0900
57     H57     4.7025   -6.1555    1.4051 H        1 ZINC000043195318    0.0800
58     H58     7.0812   -5.7794    0.8146 H        1 ZINC000043195318    0.0900
59     H59     7.2357   -4.6327    2.1672 H        1 ZINC000043195318    0.0800
60     H60     7.1203   -5.5448    4.4328 H        1 ZINC000043195318    0.3800
61     H61     8.7904   -7.2352    1.6940 H        1 ZINC000043195318    0.0600
62     H62     9.0719   -6.1966    3.1118 H        1 ZINC000043195318    0.0500
63     H63     9.6626   -8.4705    3.5430 H        1 ZINC000043195318    0.3900
64     H64     5.2011   -1.2207   -1.1697 H        1 ZINC000043195318    0.1300
65     H65     7.3500   -0.8136   -2.3008 H        1 ZINC000043195318    0.1500
66     H66     8.0146   -2.2054   -4.2197 H        1 ZINC000043195318    0.1400
67     H67     4.3827   -4.4179   -3.8708 H        1 ZINC000043195318    0.1400
68     H68     0.4465   -3.3110   -4.8906 H        1 ZINC000043195318    0.4300
69     H69     1.6806   -1.6761   -6.7926 H        1 ZINC000043195318    0.1600
70     H70     4.2910   -0.1970   -2.8807 H        1 ZINC000043195318    0.1500
@<TRIPOS>BOND
1     1     2     1
2     1     44    1
3     1     45    1
4     1     46    1
5     2     3     1
6     2     4     1
7     2     5     1
8     3     47    1
9     3     48    1
10    3     49    1
11    4     50    1
12    4     51    1
13    4     52    1
14    5     6     1
15    5     53    1
16    5     54    1
17    6     7     1
18    6     32    1
19    6     8     1
20    8     9     1
21    8     10    1
22    8     11    1
23    11    12    1
24    11    13    1
25    11    23    1
26    13    14    2
27    13    15    am
28    15    16    1
29    15    55    1
30    16    17    1
31    16    56    1
32    16    57    1
33    17    18    1
34    17    58    1
35    17    59    1
36    18    19    1
37    18    20    1
38    18    21    1
39    20    60    1
40    21    22    1
41    21    61    1
42    21    62    1
43    22    63    1
44    23    24    1
45    23    25    1
46    23    32    1
47    25    31    ar
48    25    26    ar
49    26    27    ar
50    26    64    1
51    27    28    ar
52    27    65    1
53    28    29    ar
54    28    66    1
55    29    30    1
56    29    31    ar
57    31    67    1
58    32    43    1
59    32    33    1
60    33    34    2
61    33    35    am
62    35    36    1
63    35    68    1
64    36    43    ar
65    36    37    ar
66    37    38    ar
67    37    69    1
68    38    39    1
69    38    40    ar
70    40    41    1
71    40    42    ar
72    42    43    ar
73    42    70    1
@<TRIPOS>SUBSTRUCTURE
1   ZINC000043195318 1     RESIDUE    1   A     ZIN   1


@<TRIPOS>MOLECULE
CC(C)(C)C[C@@H]1[C@@]2(C(C=CC(Cl)=C3)=C3NC2=O)[C@@H](C4=CC(Cl)=CC=C4)[C@H](C(N(C)C)=O)N1
62    65    1     0     0
SMALL
USER_CHARGES
@<TRIPOS>ATOM
1      C1     -0.2492    1.4175    1.1877 C.3      1 ZINC000036184576    0.0800
2      N2     -0.2347   -0.0464    1.1328 N.am     1 ZINC000036184576   -0.5900
3      C3      1.0067   -0.7772    1.3992 C.3      1 ZINC000036184576    0.0500
4      C4     -1.3636   -0.7208    0.8371 C.2      1 ZINC000036184576    0.5100
5      O5     -2.3913   -0.1158    0.6166 O.2      1 ZINC000036184576   -0.5100
6      C6     -1.3487   -2.2266    0.7806 C.3      1 ZINC000036184576    0.0000
7      H7     -0.4371   -2.5791    0.2981 H        1 ZINC000036184576    0.1700
8      N8     -2.5459   -2.7299    0.0574 N.4      1 ZINC000036184576   -0.5100
9      H9     -3.3581   -2.1806    0.2952 H        1 ZINC000036184576    0.4400
10     H10    -2.3885   -2.7132   -0.9391 H        1 ZINC000036184576    0.4400
11     C11    -2.7060   -4.1291    0.5373 C.3      1 ZINC000036184576    0.0600
12     H12    -2.0173   -4.7924    0.0140 H        1 ZINC000036184576    0.1700
13     C13    -4.1493   -4.5986    0.3441 C.3      1 ZINC000036184576   -0.1500
14     C14    -4.4558   -4.7031   -1.1513 C.3      1 ZINC000036184576   -0.0700
15     C15    -3.3955   -5.5728   -1.8296 C.3      1 ZINC000036184576   -0.1600
16     C16    -5.8352   -5.3356   -1.3462 C.3      1 ZINC000036184576   -0.1500
17     C17    -4.4432   -3.3053   -1.7733 C.3      1 ZINC000036184576   -0.1700
18     C18    -2.3563   -4.0622    2.0301 C.3      1 ZINC000036184576   -0.0600
19     C19    -3.5953   -3.9792    2.8792 C.2      1 ZINC000036184576    0.5400
20     O20    -4.4464   -3.1162    2.8358 O.2      1 ZINC000036184576   -0.4700
21     N21    -3.5762   -5.0494    3.6968 N.am     1 ZINC000036184576   -0.6500
22     C22    -2.4502   -5.8496    3.4911 C.ar     1 ZINC000036184576    0.1700
23     C23    -2.0469   -7.0294    4.1108 C.ar     1 ZINC000036184576   -0.1200
24     C24    -0.8722   -7.6474    3.7302 C.ar     1 ZINC000036184576    0.0200
25     Cl25   -0.3778   -9.1181    4.5091 Cl       1 ZINC000036184576   -0.0300
26     C26    -0.0874   -7.1000    2.7305 C.ar     1 ZINC000036184576   -0.1200
27     C27    -0.4822   -5.9282    2.1094 C.ar     1 ZINC000036184576   -0.0400
28     C28    -1.6527   -5.3090    2.4859 C.ar     1 ZINC000036184576   -0.1400
29     C29    -1.4702   -2.8208    2.2030 C.3      1 ZINC000036184576   -0.0200
30     H30    -1.9463   -2.1046    2.8727 H        1 ZINC000036184576    0.1300
31     C31    -0.1149   -3.2127    2.7329 C.ar     1 ZINC000036184576   -0.0800
32     C32     0.8668   -3.6500    1.8637 C.ar     1 ZINC000036184576   -0.1300
33     C33     2.1106   -4.0093    2.3490 C.ar     1 ZINC000036184576   -0.0900
34     C34     2.3728   -3.9319    3.7036 C.ar     1 ZINC000036184576   -0.0900
35     C35     1.3904   -3.4942    4.5743 C.ar     1 ZINC000036184576   -0.0200
36     Cl36    1.7192   -3.3960    6.2760 Cl       1 ZINC000036184576   -0.0400
37     C37     0.1480   -3.1293    4.0875 C.ar     1 ZINC000036184576   -0.0900
38     H38     0.7470    1.7815    1.4394 H        1 ZINC000036184576    0.0900
39     H39    -0.5466    1.8146    0.2172 H        1 ZINC000036184576    0.0800
40     H40    -0.9586    1.7456    1.9475 H        1 ZINC000036184576    0.0800
41     H41     1.0767   -0.9983    2.4643 H        1 ZINC000036184576    0.0800
42     H42     1.0082   -1.7091    0.8338 H        1 ZINC000036184576    0.0800
43     H43     1.8588   -0.1680    1.0978 H        1 ZINC000036184576    0.0900
44     H44    -4.2792   -5.5751    0.8107 H        1 ZINC000036184576    0.1200
45     H45    -4.8293   -3.8823    0.8052 H        1 ZINC000036184576    0.1100
46     H46    -3.4045   -6.5686   -1.3865 H        1 ZINC000036184576    0.0700
47     H47    -3.6138   -5.6472   -2.8950 H        1 ZINC000036184576    0.0800
48     H48    -2.4127   -5.1222   -1.6908 H        1 ZINC000036184576    0.0500
49     H49    -6.5906   -4.7160   -0.8629 H        1 ZINC000036184576    0.0600
50     H50    -6.0536   -5.4101   -2.4115 H        1 ZINC000036184576    0.0700
51     H51    -5.8442   -6.3314   -0.9030 H        1 ZINC000036184576    0.0600
52     H52    -3.4144   -3.0062   -1.9739 H        1 ZINC000036184576    0.0400
53     H53    -5.0064   -3.3178   -2.7064 H        1 ZINC000036184576    0.0900
54     H54    -4.8997   -2.5962   -1.0828 H        1 ZINC000036184576    0.0700
55     H55    -4.2644   -5.2418    4.3528 H        1 ZINC000036184576    0.4300
56     H56    -2.6546   -7.4622    4.8917 H        1 ZINC000036184576    0.1500
57     H57     0.8310   -7.5860    2.4360 H        1 ZINC000036184576    0.1500
58     H58     0.1284   -5.4990    1.3288 H        1 ZINC000036184576    0.1500
59     H59     0.6621   -3.7114    0.8050 H        1 ZINC000036184576    0.1300
60     H60     2.8772   -4.3510    1.6694 H        1 ZINC000036184576    0.1500
61     H61     3.3441   -4.2133    4.0827 H        1 ZINC000036184576    0.1400
62     H62    -0.6191   -2.7876    4.7665 H        1 ZINC000036184576    0.1300
@<TRIPOS>BOND
1     1     2     1
2     1     38    1
3     1     39    1
4     1     40    1
5     2     3     1
6     2     4     am
7     3     41    1
8     3     42    1
9     3     43    1
10    4     5     2
11    4     6     1
12    6     7     1
13    6     29    1
14    6     8     1
15    8     9     1
16    8     10    1
17    8     11    1
18    11    12    1
19    11    13    1
20    11    18    1
21    13    14    1
22    13    44    1
23    13    45    1
24    14    15    1
25    14    16    1
26    14    17    1
27    15    46    1
28    15    47    1
29    15    48    1
30    16    49    1
31    16    50    1
32    16    51    1
33    17    52    1
34    17    53    1
35    17    54    1
36    18    28    1
37    18    19    1
38    18    29    1
39    19    20    2
40    19    21    am
41    21    22    1
42    21    55    1
43    22    28    ar
44    22    23    ar
45    23    24    ar
46    23    56    1
47    24    25    1
48    24    26    ar
49    26    27    ar
50    26    57    1
51    27    28    ar
52    27    58    1
53    29    30    1
54    29    31    1
55    31    37    ar
56    31    32    ar
57    32    33    ar
58    32    59    1
59    33    34    ar
60    33    60    1
61    34    35    ar
62    34    61    1
63    35    36    1
64    35    37    ar
65    37    62    1
@<TRIPOS>SUBSTRUCTURE
1   ZINC000036184576 1     RESIDUE    1   A     ZIN   1


@<TRIPOS>MOLECULE
CC(C)(C)C[C@H]1[C@]2(C(SC(Cl)=C3)=C3NC2=O)[C@@H](C4=C(F)C(Cl)=CC=C4)[C@H](C(NC5=C(OC)C=C(C(N)=O)C=C5)=O)N1
71    75    1     0     0
SMALL
USER_CHARGES
@<TRIPOS>ATOM
1      C1      3.5324    0.0084    1.6002 C.3      1 ZINC000098208075    0.0200
2      O2      3.0699   -1.2847    1.2052 O.3      1 ZINC000098208075   -0.3200
3      C3      1.7479   -1.4038    0.9097 C.ar     1 ZINC000098208075    0.1200
4      C4      0.9196   -0.3021    0.9926 C.ar     1 ZINC000098208075   -0.1300
5      C5     -0.4386   -0.4279    0.6877 C.ar     1 ZINC000098208075   -0.0900
6      C6     -1.3277    0.7472    0.7746 C.2      1 ZINC000098208075    0.5600
7      N7     -2.6372    0.6246    0.4803 N.am     1 ZINC000098208075   -0.8500
8      O8     -0.8787    1.8257    1.1116 O.2      1 ZINC000098208075   -0.5300
9      C9     -0.9532   -1.6673    0.3003 C.ar     1 ZINC000098208075   -0.1000
10     C10    -0.1226   -2.7638    0.2195 C.ar     1 ZINC000098208075   -0.0900
11     C11     1.2289   -2.6385    0.5168 C.ar     1 ZINC000098208075    0.1100
12     N12     2.0670   -3.7520    0.4331 N.am     1 ZINC000098208075   -0.6300
13     C13     1.5835   -4.9811    0.7018 C.2      1 ZINC000098208075    0.5100
14     O14     0.4019   -5.1313    0.9304 O.2      1 ZINC000098208075   -0.5000
15     C15     2.5111   -6.1686    0.7184 C.3      1 ZINC000098208075    0.0100
16     H16     3.2276   -6.1017   -0.1004 H        1 ZINC000098208075    0.1800
17     N17     1.7355   -7.4334    0.6262 N.4      1 ZINC000098208075   -0.5100
18     H18     0.9615   -7.3264   -0.0121 H        1 ZINC000098208075    0.4400
19     H19     2.3323   -8.1921    0.3326 H        1 ZINC000098208075    0.4300
20     C20     1.2398   -7.6645    2.0100 C.3      1 ZINC000098208075    0.0500
21     H21     0.3601   -7.0517    2.2068 H        1 ZINC000098208075    0.1800
22     C22     0.9171   -9.1450    2.2220 C.3      1 ZINC000098208075   -0.1400
23     C23    -0.2981   -9.5284    1.3751 C.3      1 ZINC000098208075   -0.0700
24     C24     0.0348   -9.3450   -0.1069 C.3      1 ZINC000098208075   -0.1700
25     C25    -0.6625  -10.9908    1.6388 C.3      1 ZINC000098208075   -0.1500
26     C26    -1.4817   -8.6329    1.7466 C.3      1 ZINC000098208075   -0.1600
27     C27     2.4057   -7.2331    2.9088 C.3      1 ZINC000098208075   -0.0200
28     C28     3.2142   -8.4122    3.3691 C.2      1 ZINC000098208075    0.5500
29     O29     3.8009   -9.2123    2.6710 O.2      1 ZINC000098208075   -0.4700
30     N30     3.1558   -8.4001    4.7121 N.am     1 ZINC000098208075   -0.6400
31     C31     2.3805   -7.3156    5.2009 C.2      1 ZINC000098208075    0.1600
32     C32     1.9077   -6.5842    4.1757 C.2      1 ZINC000098208075   -0.3000
33     S33     0.9465   -5.2375    4.7748 S.3      1 ZINC000098208075    0.2800
34     C34     1.2290   -5.7322    6.4362 C.2      1 ZINC000098208075   -0.1100
35     Cl35    0.6083   -4.9200    7.8394 Cl       1 ZINC000098208075    0.0300
36     C36     1.9881   -6.8213    6.4575 C.2      1 ZINC000098208075   -0.1200
37     C37     3.2489   -6.2577    2.0745 C.3      1 ZINC000098208075   -0.0200
38     H38     3.2837   -5.2795    2.5541 H        1 ZINC000098208075    0.1500
39     C39     4.6428   -6.7982    1.8846 C.ar     1 ZINC000098208075   -0.1500
40     C40     4.9018   -7.7010    0.8710 C.ar     1 ZINC000098208075   -0.0600
41     C41     6.1804   -8.1971    0.6957 C.ar     1 ZINC000098208075   -0.1000
42     C42     7.2015   -7.7913    1.5341 C.ar     1 ZINC000098208075   -0.0600
43     C43     6.9450   -6.8881    2.5499 C.ar     1 ZINC000098208075   -0.0700
44     Cl44    8.2271   -6.3785    3.6035 Cl       1 ZINC000098208075   -0.0200
45     C45     5.6652   -6.3859    2.7221 C.ar     1 ZINC000098208075    0.1300
46     F46     5.4128   -5.5037    3.7136 F        1 ZINC000098208075   -0.1100
47     H47     4.6018   -0.0356    1.8065 H        1 ZINC000098208075    0.1100
48     H48     3.3463    0.7217    0.7973 H        1 ZINC000098208075    0.0600
49     H49     3.0018    0.3254    2.4981 H        1 ZINC000098208075    0.0600
50     H50     1.3205    0.6548    1.2929 H        1 ZINC000098208075    0.1500
51     H51    -2.9955   -0.2358    0.2115 H        1 ZINC000098208075    0.4000
52     H52    -3.2215    1.3968    0.5374 H        1 ZINC000098208075    0.4100
53     H53    -2.0024   -1.7664    0.0643 H        1 ZINC000098208075    0.1400
54     H54    -0.5220   -3.7215   -0.0799 H        1 ZINC000098208075    0.1600
55     H55     2.9972   -3.6411    0.1816 H        1 ZINC000098208075    0.4300
56     H56     1.7733   -9.7499    1.9237 H        1 ZINC000098208075    0.1100
57     H57     0.6965   -9.3216    3.2748 H        1 ZINC000098208075    0.1200
58     H58     1.0734   -9.6246   -0.2833 H        1 ZINC000098208075    0.0600
59     H59    -0.6189   -9.9779   -0.7072 H        1 ZINC000098208075    0.0900
60     H60    -0.1131   -8.3018   -0.3861 H        1 ZINC000098208075    0.0500
61     H61    -0.8997  -11.1215    2.6946 H        1 ZINC000098208075    0.0600
62     H62    -1.5282  -11.2640    1.0354 H        1 ZINC000098208075    0.0700
63     H63     0.1807  -11.6288    1.3741 H        1 ZINC000098208075    0.0600
64     H64    -1.2221   -7.5911    1.5588 H        1 ZINC000098208075    0.0600
65     H65    -2.3474   -8.9061    1.1433 H        1 ZINC000098208075    0.0700
66     H66    -1.7189   -8.7636    2.8024 H        1 ZINC000098208075    0.0700
67     H67     3.5914   -9.0549    5.2800 H        1 ZINC000098208075    0.4300
68     H68     2.2849   -7.2972    7.3804 H        1 ZINC000098208075    0.1700
69     H69     4.1048   -8.0196    0.2154 H        1 ZINC000098208075    0.1200
70     H70     6.3814   -8.9026   -0.0969 H        1 ZINC000098208075    0.1500
71     H71     8.1998   -8.1797    1.3964 H        1 ZINC000098208075    0.1500
@<TRIPOS>BOND
1     1     2     1
2     1     47    1
3     1     48    1
4     1     49    1
5     2     3     1
6     3     11    ar
7     3     4     ar
8     4     5     ar
9     4     50    1
10    5     6     1
11    5     9     ar
12    6     7     am
13    6     8     2
14    7     51    1
15    7     52    1
16    9     10    ar
17    9     53    1
18    10    11    ar
19    10    54    1
20    11    12    1
21    12    13    am
22    12    55    1
23    13    14    2
24    13    15    1
25    15    16    1
26    15    37    1
27    15    17    1
28    17    18    1
29    17    19    1
30    17    20    1
31    20    21    1
32    20    22    1
33    20    27    1
34    22    23    1
35    22    56    1
36    22    57    1
37    23    24    1
38    23    25    1
39    23    26    1
40    24    58    1
41    24    59    1
42    24    60    1
43    25    61    1
44    25    62    1
45    25    63    1
46    26    64    1
47    26    65    1
48    26    66    1
49    27    32    1
50    27    28    1
51    27    37    1
52    28    29    2
53    28    30    am
54    30    31    1
55    30    67    1
56    31    36    1
57    31    32    2
58    32    33    1
59    33    34    1
60    34    35    1
61    34    36    2
62    36    68    1
63    37    38    1
64    37    39    1
65    39    45    ar
66    39    40    ar
67    40    41    ar
68    40    69    1
69    41    42    ar
70    41    70    1
71    42    43    ar
72    42    71    1
73    43    44    1
74    43    45    ar
75    45    46    1
@<TRIPOS>SUBSTRUCTURE
1   ZINC000098208075 1     RESIDUE    1   A     ZIN   1


@<TRIPOS>MOLECULE
CC(C)(C)C[C@H]1[C@]2(C(C=NC(Cl)=C3)=C3NC2=O)[C@@H](C4=C(F)C(Cl)=CC=C4)[C@H](C(NC5=C(OC)C=C(C(N)=O)C=C5)=O)N1
73    77    1     0     0
SMALL
USER_CHARGES
@<TRIPOS>ATOM
1      C1      2.6345    0.6532   -0.5697 C.3      1 ZINC000103253996    0.0200
2      O2      2.3308   -0.7064   -0.2511 O.3      1 ZINC000103253996   -0.3200
3      C3      1.0504   -0.9839    0.1129 C.ar     1 ZINC000103253996    0.1100
4      C4      0.1102    0.0265    0.1562 C.ar     1 ZINC000103253996   -0.1300
5      C5     -1.2052   -0.2623    0.5304 C.ar     1 ZINC000103253996   -0.1000
6      C6     -2.2137    0.8145    0.5777 C.2      1 ZINC000103253996    0.5600
7      N7     -3.4818    0.5348    0.9386 N.am     1 ZINC000103253996   -0.8500
8      O8     -1.9005    1.9538    0.2909 O.2      1 ZINC000103253996   -0.5300
9      C9     -1.5639   -1.5717    0.8591 C.ar     1 ZINC000103253996   -0.1000
10     C10    -0.6219   -2.5762    0.8148 C.ar     1 ZINC000103253996   -0.1000
11     C11     0.6846   -2.2912    0.4374 C.ar     1 ZINC000103253996    0.1200
12     N12     1.6358   -3.3123    0.3934 N.am     1 ZINC000103253996   -0.6300
13     C13     1.2429   -4.5936    0.2507 C.2      1 ZINC000103253996    0.5100
14     O14     0.0733   -4.8516    0.0598 O.2      1 ZINC000103253996   -0.5000
15     C15     2.2568   -5.7058    0.3283 C.3      1 ZINC000103253996   -0.0100
16     H16     2.9719   -5.5013    1.1251 H        1 ZINC000103253996    0.1800
17     N17     1.5739   -6.9941    0.5819 N.4      1 ZINC000103253996   -0.5000
18     H18     2.1568   -7.5903    1.1500 H        1 ZINC000103253996    0.4400
19     H19     0.6891   -6.8340    1.0398 H        1 ZINC000103253996    0.4400
20     C20     1.3564   -7.6125   -0.7535 C.3      1 ZINC000103253996    0.0600
21     H21     0.4814   -7.1811   -1.2396 H        1 ZINC000103253996    0.1700
22     C22     1.2095   -9.1303   -0.6285 C.3      1 ZINC000103253996   -0.1400
23     C23    -0.0875   -9.4578    0.1141 C.3      1 ZINC000103253996   -0.0700
24     C24    -1.2611   -8.7619   -0.5782 C.3      1 ZINC000103253996   -0.1600
25     C25    -0.3134  -10.9710    0.1031 C.3      1 ZINC000103253996   -0.1500
26     C26     0.0150   -8.9678    1.5599 C.3      1 ZINC000103253996   -0.1700
27     C27     2.6382   -7.2487   -1.5204 C.3      1 ZINC000103253996   -0.0600
28     C28     3.7425   -8.2315   -1.2509 C.2      1 ZINC000103253996    0.5500
29     O29     4.2201   -8.5071   -0.1708 O.2      1 ZINC000103253996   -0.4600
30     N30     4.0983   -8.7475   -2.4452 N.am     1 ZINC000103253996   -0.6400
31     C31     3.3507   -8.2164   -3.4896 C.ar     1 ZINC000103253996    0.2200
32     C32     3.3708   -8.4517   -4.8638 C.ar     1 ZINC000103253996   -0.1700
33     C33     2.4925   -7.7622   -5.6764 C.ar     1 ZINC000103253996    0.2200
34     Cl34    2.5101   -8.0478   -7.3887 Cl       1 ZINC000103253996    0.0100
35     N35     1.6393   -6.8897   -5.1723 N.ar     1 ZINC000103253996   -0.4700
36     C36     1.5880   -6.6389   -3.8755 C.ar     1 ZINC000103253996    0.1900
37     C37     2.4298   -7.2847   -3.0038 C.ar     1 ZINC000103253996   -0.2100
38     C38     2.9955   -5.8386   -1.0195 C.3      1 ZINC000103253996   -0.0100
39     H39     2.6404   -5.0851   -1.7225 H        1 ZINC000103253996    0.1500
40     C40     4.4846   -5.7128   -0.8250 C.ar     1 ZINC000103253996   -0.1500
41     C41     5.2627   -5.1284   -1.8062 C.ar     1 ZINC000103253996   -0.0600
42     C42     6.6290   -5.0120   -1.6285 C.ar     1 ZINC000103253996   -0.1000
43     C43     7.2188   -5.4803   -0.4696 C.ar     1 ZINC000103253996   -0.0600
44     C44     6.4424   -6.0660    0.5140 C.ar     1 ZINC000103253996   -0.0700
45     Cl45    7.1830   -6.6547    1.9695 Cl       1 ZINC000103253996   -0.0200
46     C46     5.0725   -6.1774    0.3391 C.ar     1 ZINC000103253996    0.1300
47     F47     4.3127   -6.7492    1.2987 F        1 ZINC000103253996   -0.1200
48     H48     3.6865    0.7361   -0.8428 H        1 ZINC000103253996    0.1100
49     H49     2.0154    0.9773   -1.4062 H        1 ZINC000103253996    0.0600
50     H50     2.4333    1.2831    0.2968 H        1 ZINC000103253996    0.0600
51     H51     0.3907    1.0379   -0.0982 H        1 ZINC000103253996    0.1500
52     H52    -3.7317   -0.3742    1.1673 H        1 ZINC000103253996    0.4000
53     H53    -4.1445    1.2424    0.9696 H        1 ZINC000103253996    0.4100
54     H54    -2.5798   -1.7966    1.1485 H        1 ZINC000103253996    0.1400
55     H55    -0.9007   -3.5881    1.0696 H        1 ZINC000103253996    0.1600
56     H56     2.5794   -3.0996    0.4655 H        1 ZINC000103253996    0.4300
57     H57     1.1812   -9.5757   -1.6230 H        1 ZINC000103253996    0.1200
58     H58     2.0572   -9.5330   -0.0741 H        1 ZINC000103253996    0.1000
59     H59    -1.3342   -9.1109   -1.6082 H        1 ZINC000103253996    0.0700
60     H60    -2.1852   -8.9952   -0.0492 H        1 ZINC000103253996    0.0800
61     H61    -1.1002   -7.6839   -0.5704 H        1 ZINC000103253996    0.0600
62     H62     0.5228  -11.4667    0.5963 H        1 ZINC000103253996    0.0600
63     H63    -1.2374  -11.2042    0.6322 H        1 ZINC000103253996    0.0700
64     H64    -0.3864  -11.3200   -0.9269 H        1 ZINC000103253996    0.0600
65     H65    -0.2135   -7.9028    1.5997 H        1 ZINC000103253996    0.0500
66     H66    -0.6948   -9.5151    2.1802 H        1 ZINC000103253996    0.0900
67     H67     1.0263   -9.1366    1.9298 H        1 ZINC000103253996    0.0600
68     H68     4.7955   -9.4117   -2.5618 H        1 ZINC000103253996    0.4300
69     H69     4.0643   -9.1633   -5.2870 H        1 ZINC000103253996    0.1600
70     H70     0.8771   -5.9189   -3.4979 H        1 ZINC000103253996    0.1700
71     H71     4.8034   -4.7626   -2.7127 H        1 ZINC000103253996    0.1500
72     H72     7.2359   -4.5551   -2.3962 H        1 ZINC000103253996    0.1500
73     H73     8.2861   -5.3891   -0.3321 H        1 ZINC000103253996    0.1600
@<TRIPOS>BOND
1     1     2     1
2     1     48    1
3     1     49    1
4     1     50    1
5     2     3     1
6     3     11    ar
7     3     4     ar
8     4     5     ar
9     4     51    1
10    5     6     1
11    5     9     ar
12    6     7     am
13    6     8     2
14    7     52    1
15    7     53    1
16    9     10    ar
17    9     54    1
18    10    11    ar
19    10    55    1
20    11    12    1
21    12    13    am
22    12    56    1
23    13    14    2
24    13    15    1
25    15    16    1
26    15    38    1
27    15    17    1
28    17    18    1
29    17    19    1
30    17    20    1
31    20    21    1
32    20    22    1
33    20    27    1
34    22    23    1
35    22    57    1
36    22    58    1
37    23    24    1
38    23    25    1
39    23    26    1
40    24    59    1
41    24    60    1
42    24    61    1
43    25    62    1
44    25    63    1
45    25    64    1
46    26    65    1
47    26    66    1
48    26    67    1
49    27    37    1
50    27    28    1
51    27    38    1
52    28    29    2
53    28    30    am
54    30    31    1
55    30    68    1
56    31    37    ar
57    31    32    ar
58    32    33    ar
59    32    69    1
60    33    34    1
61    33    35    ar
62    35    36    ar
63    36    37    ar
64    36    70    1
65    38    39    1
66    38    40    1
67    40    46    ar
68    40    41    ar
69    41    42    ar
70    41    71    1
71    42    43    ar
72    42    72    1
73    43    44    ar
74    43    73    1
75    44    45    1
76    44    46    ar
77    46    47    1
@<TRIPOS>SUBSTRUCTURE
1   ZINC000103253996 1     RESIDUE    1   A     ZIN   1


@<TRIPOS>MOLECULE
CC(C)(C)C[C@@H](NC(C(N[C@@H]1CC[C@@H](O)CC1)=O)[C@@H]2C3=CC=CC(Cl)=C3F)[C@]2(C4=C(N5)C=C(Cl)C=C4)C5=O
73    77    1     0     0
SMALL
USER_CHARGES
@<TRIPOS>ATOM
1      C1      0.7375   -0.8178    0.5559 C.3      1 ZINC000096269677   -0.1800
2      C2      1.2423   -2.0572   -0.1858 C.3      1 ZINC000096269677   -0.0800
3      C3      2.5116   -2.5759    0.4928 C.3      1 ZINC000096269677   -0.1600
4      C4      0.1661   -3.1443   -0.1537 C.3      1 ZINC000096269677   -0.1400
5      C5      1.5538   -1.6907   -1.6383 C.3      1 ZINC000096269677   -0.1400
6      C6      2.7402   -0.7254   -1.6775 C.3      1 ZINC000096269677    0.0500
7      H7      3.5378   -1.0767   -1.0227 H        1 ZINC000096269677    0.1700
8      N8      2.3100    0.6435   -1.2844 N.4      1 ZINC000096269677   -0.5100
9      H9      1.6368    0.5995   -0.5340 H        1 ZINC000096269677    0.4400
10     H10     3.1069    1.1985   -1.0108 H        1 ZINC000096269677    0.4400
11     C11     1.6834    1.1999   -2.5122 C.3      1 ZINC000096269677    0.0000
12     H12     0.6658    0.8252   -2.6228 H        1 ZINC000096269677    0.1700
13     C13     1.6854    2.7062   -2.4667 C.2      1 ZINC000096269677    0.5100
14     O14     2.4328    3.2891   -1.7100 O.2      1 ZINC000096269677   -0.5200
15     N15     0.8566    3.4057   -3.2669 N.am     1 ZINC000096269677   -0.6900
16     C16     0.8585    4.8700   -3.2227 C.3      1 ZINC000096269677    0.1400
17     C17     1.9593    5.4065   -4.1400 C.3      1 ZINC000096269677   -0.1300
18     C18     1.9613    6.9358   -4.0938 C.3      1 ZINC000096269677   -0.1100
19     C19     0.6039    7.4620   -4.5643 C.3      1 ZINC000096269677    0.1000
20     O20     0.3622    7.0262   -5.9036 O.3      1 ZINC000096269677   -0.5600
21     C21    -0.4969    6.9255   -3.6470 C.3      1 ZINC000096269677   -0.1500
22     C22    -0.4989    5.3962   -3.6932 C.3      1 ZINC000096269677   -0.1200
23     C23     2.5738    0.6918   -3.6696 C.3      1 ZINC000096269677   -0.0200
24     H24     3.3193    1.4422   -3.9328 H        1 ZINC000096269677    0.1400
25     C25     1.7296    0.3485   -4.8698 C.ar     1 ZINC000096269677   -0.1500
26     C26     0.4887   -0.2349   -4.6977 C.ar     1 ZINC000096269677   -0.0500
27     C27    -0.2869   -0.5499   -5.7982 C.ar     1 ZINC000096269677   -0.1000
28     C28     0.1778   -0.2823   -7.0721 C.ar     1 ZINC000096269677   -0.0600
29     C29     1.4196    0.3011   -7.2473 C.ar     1 ZINC000096269677   -0.0800
30     Cl30    2.0038    0.6369   -8.8472 Cl       1 ZINC000096269677   -0.0300
31     C31     2.1946    0.6226   -6.1447 C.ar     1 ZINC000096269677    0.1400
32     F32     3.4078    1.1924   -6.3138 F        1 ZINC000096269677   -0.1200
33     C33     3.2561   -0.5679   -3.1140 C.3      1 ZINC000096269677   -0.0600
34     C34     2.9394   -1.7787   -3.9485 C.2      1 ZINC000096269677    0.5500
35     O35     1.8380   -2.2314   -4.1789 O.2      1 ZINC000096269677   -0.4500
36     N36     4.1162   -2.2622   -4.3909 N.am     1 ZINC000096269677   -0.6500
37     C37     5.1996   -1.5039   -3.9418 C.ar     1 ZINC000096269677    0.1800
38     C38     6.5667   -1.6516   -4.1604 C.ar     1 ZINC000096269677   -0.1200
39     C39     7.4600   -0.7600   -3.6002 C.ar     1 ZINC000096269677    0.0200
40     Cl40    9.1627   -0.9528   -3.8785 Cl       1 ZINC000096269677   -0.0300
41     C41     7.0042    0.2868   -2.8184 C.ar     1 ZINC000096269677   -0.1200
42     C42     5.6469    0.4402   -2.5968 C.ar     1 ZINC000096269677   -0.0500
43     C43     4.7532   -0.4470   -3.1530 C.ar     1 ZINC000096269677   -0.1700
44     H44     1.5878   -0.2359    0.9116 H        1 ZINC000096269677    0.0600
45     H45     0.1378   -0.2087   -0.1205 H        1 ZINC000096269677    0.0600
46     H46     0.1274   -1.1259    1.4050 H        1 ZINC000096269677    0.1000
47     H47     2.2897   -2.8370    1.5275 H        1 ZINC000096269677    0.0800
48     H48     2.8712   -3.4589   -0.0356 H        1 ZINC000096269677    0.0700
49     H49     3.2783   -1.8015    0.4699 H        1 ZINC000096269677    0.0500
50     H50    -0.7382   -2.7747   -0.6372 H        1 ZINC000096269677    0.0600
51     H51     0.5257   -4.0272   -0.6821 H        1 ZINC000096269677    0.0700
52     H52    -0.0558   -3.4054    0.8810 H        1 ZINC000096269677    0.0700
53     H53     1.8017   -2.5939   -2.1957 H        1 ZINC000096269677    0.1300
54     H54     0.6826   -1.2140   -2.0876 H        1 ZINC000096269677    0.0900
55     H55     0.2588    2.9395   -3.8721 H        1 ZINC000096269677    0.4100
56     H56     1.0428    5.2024   -2.2011 H        1 ZINC000096269677    0.1000
57     H57     2.9263    5.0316   -3.8048 H        1 ZINC000096269677    0.0700
58     H58     1.7750    5.0740   -5.1616 H        1 ZINC000096269677    0.0800
59     H59     2.1456    7.2682   -3.0722 H        1 ZINC000096269677    0.0800
60     H60     2.7455    7.3180   -4.7473 H        1 ZINC000096269677    0.0800
61     H61     0.6053    8.5515   -4.5314 H        1 ZINC000096269677    0.0600
62     H62    -0.4828    7.3238   -6.2677 H        1 ZINC000096269677    0.3800
63     H63    -0.3126    7.2579   -2.6254 H        1 ZINC000096269677    0.0800
64     H64    -1.4640    7.3004   -3.9822 H        1 ZINC000096269677    0.0800
65     H65    -0.6832    5.0638   -4.7148 H        1 ZINC000096269677    0.0800
66     H66    -1.2831    5.0140   -3.0397 H        1 ZINC000096269677    0.0700
67     H67     0.1245   -0.4452   -3.7030 H        1 ZINC000096269677    0.1400
68     H68    -1.2565   -1.0057   -5.6623 H        1 ZINC000096269677    0.1500
69     H69    -0.4288   -0.5291   -7.9310 H        1 ZINC000096269677    0.1500
70     H70     4.2013   -3.0462   -4.9558 H        1 ZINC000096269677    0.4300
71     H71     6.9296   -2.4663   -4.7695 H        1 ZINC000096269677    0.1500
72     H72     7.7060    0.9822   -2.3820 H        1 ZINC000096269677    0.1500
73     H73     5.2885    1.2561   -1.9867 H        1 ZINC000096269677    0.1400
@<TRIPOS>BOND
1     1     2     1
2     1     44    1
3     1     45    1
4     1     46    1
5     2     3     1
6     2     4     1
7     2     5     1
8     3     47    1
9     3     48    1
10    3     49    1
11    4     50    1
12    4     51    1
13    4     52    1
14    5     6     1
15    5     53    1
16    5     54    1
17    6     7     1
18    6     33    1
19    6     8     1
20    8     9     1
21    8     10    1
22    8     11    1
23    11    12    1
24    11    13    1
25    11    23    1
26    13    14    2
27    13    15    am
28    15    16    1
29    15    55    1
30    16    22    1
31    16    17    1
32    16    56    1
33    17    18    1
34    17    57    1
35    17    58    1
36    18    19    1
37    18    59    1
38    18    60    1
39    19    20    1
40    19    21    1
41    19    61    1
42    20    62    1
43    21    22    1
44    21    63    1
45    21    64    1
46    22    65    1
47    22    66    1
48    23    24    1
49    23    25    1
50    23    33    1
51    25    31    ar
52    25    26    ar
53    26    27    ar
54    26    67    1
55    27    28    ar
56    27    68    1
57    28    29    ar
58    28    69    1
59    29    30    1
60    29    31    ar
61    31    32    1
62    33    43    1
63    33    34    1
64    34    35    2
65    34    36    am
66    36    37    1
67    36    70    1
68    37    43    ar
69    37    38    ar
70    38    39    ar
71    38    71    1
72    39    40    1
73    39    41    ar
74    41    42    ar
75    41    72    1
76    42    43    ar
77    42    73    1
@<TRIPOS>SUBSTRUCTURE
1   ZINC000096269677 1     RESIDUE    1   A     ZIN   1


@<TRIPOS>MOLECULE
O=C(NC(C)(C)C)[C@@H](N(C=O)CC1=CC=C(OCC2=CC=C(Cl)C=C2)C=C1)C3=C(C(O)=O)NC4=CC(Cl)=CC=C43
68    71    1     0     0
SMALL
USER_CHARGES
@<TRIPOS>ATOM
1      C1      0.9107    0.1015    1.9348 C.3      1 ZINC000098209627   -0.1700
2      C2      2.1898    0.9408    1.9149 C.3      1 ZINC000098209627    0.1700
3      C3      1.8714    2.3666    2.3696 C.3      1 ZINC000098209627   -0.1600
4      C4      3.2206    0.3220    2.8612 C.3      1 ZINC000098209627   -0.1500
5      N5      2.7324    0.9718    0.5545 N.am     1 ZINC000098209627   -0.7300
6      C6      1.9951    1.4781   -0.4538 C.2      1 ZINC000098209627    0.5100
7      O7      0.8463    1.8127   -0.2562 O.2      1 ZINC000098209627   -0.5100
8      C8      2.5983    1.6284   -1.8266 C.3      1 ZINC000098209627    0.2300
9      H9      3.6526    1.3537   -1.7923 H        1 ZINC000098209627    0.0900
10     C10     1.8756    0.7271   -2.7943 C.2      1 ZINC000098209627   -0.2000
11     C11     1.9154    0.8110   -4.1524 C.2      1 ZINC000098209627    0.0900
12     C12     2.6746    1.8011   -4.9213 C.2      1 ZINC000098209627    0.5300
13     O13     2.0999    2.5229   -5.7261 O.co2    1 ZINC000098209627   -0.6600
14     O14     3.8836    1.9065   -4.7588 O.co2    1 ZINC000098209627   -0.6400
15     N15     1.1247   -0.1885   -4.6903 N.pl3    1 ZINC000098209627   -0.5600
16     C16     0.5746   -0.9178   -3.6635 C.ar     1 ZINC000098209627    0.0900
17     C17    -0.2808   -2.0150   -3.6276 C.ar     1 ZINC000098209627   -0.1100
18     C18    -0.6688   -2.5418   -2.4145 C.ar     1 ZINC000098209627   -0.0300
19     Cl19   -1.7356   -3.9107   -2.3733 Cl       1 ZINC000098209627   -0.0800
20     C20    -0.2135   -1.9875   -1.2233 C.ar     1 ZINC000098209627   -0.1400
21     C21     0.6256   -0.9120   -1.2336 C.ar     1 ZINC000098209627   -0.0700
22     C22     1.0390   -0.3616   -2.4544 C.ar     1 ZINC000098209627   -0.0700
23     N23     2.4703    3.0199   -2.2665 N.am     1 ZINC000098209627   -0.6000
24     C24     1.7074    3.3211   -3.3360 C.2      1 ZINC000098209627    0.5100
25     O25     1.6779    4.4572   -3.7593 O.2      1 ZINC000098209627   -0.5400
26     C26     3.1714    4.0841   -1.5439 C.3      1 ZINC000098209627    0.1600
27     C27     4.5384    4.2839   -2.1462 C.ar     1 ZINC000098209627   -0.1300
28     C28     5.6152    3.5596   -1.6692 C.ar     1 ZINC000098209627   -0.0600
29     C29     6.8693    3.7410   -2.2195 C.ar     1 ZINC000098209627   -0.1500
30     C30     7.0475    4.6503   -3.2520 C.ar     1 ZINC000098209627    0.1300
31     O31     8.2801    4.8302   -3.7954 O.3      1 ZINC000098209627   -0.3100
32     C32     8.3893    5.7828   -4.8549 C.3      1 ZINC000098209627    0.1000
33     C33     9.8187    5.8461   -5.3282 C.ar     1 ZINC000098209627   -0.0800
34     C34    10.7017    6.7339   -4.7424 C.ar     1 ZINC000098209627   -0.0800
35     C35    12.0128    6.7924   -5.1760 C.ar     1 ZINC000098209627   -0.1200
36     C36    12.4413    5.9623   -6.1966 C.ar     1 ZINC000098209627   -0.0300
37     Cl37   14.0880    6.0348   -6.7413 Cl       1 ZINC000098209627   -0.0700
38     C38    11.5570    5.0740   -6.7824 C.ar     1 ZINC000098209627   -0.1100
39     C39    10.2477    5.0125   -6.3441 C.ar     1 ZINC000098209627   -0.0800
40     C40     5.9653    5.3755   -3.7291 C.ar     1 ZINC000098209627   -0.2000
41     C41     4.7124    5.1870   -3.1786 C.ar     1 ZINC000098209627   -0.0400
42     H42     0.1763    0.5424    1.2606 H        1 ZINC000098209627    0.0900
43     H43     1.1375   -0.9142    1.6109 H        1 ZINC000098209627    0.0600
44     H44     0.5069    0.0785    2.9470 H        1 ZINC000098209627    0.0600
45     H45     1.4676    2.3435    3.3818 H        1 ZINC000098209627    0.0600
46     H46     2.7826    2.9645    2.3554 H        1 ZINC000098209627    0.0500
47     H47     1.1370    2.8075    1.6954 H        1 ZINC000098209627    0.0800
48     H48     3.4474   -0.6938    2.5373 H        1 ZINC000098209627    0.0600
49     H49     4.1318    0.9199    2.8470 H        1 ZINC000098209627    0.0600
50     H50     2.8168    0.2989    3.8734 H        1 ZINC000098209627    0.0700
51     H51     3.6224    0.6280    0.3793 H        1 ZINC000098209627    0.4000
52     H52     0.9818   -0.3482   -5.6364 H        1 ZINC000098209627    0.4200
53     H53    -0.6399   -2.4521   -4.5476 H        1 ZINC000098209627    0.1300
54     H54    -0.5274   -2.4121   -0.2812 H        1 ZINC000098209627    0.1300
55     H55     0.9739   -0.4884   -0.3033 H        1 ZINC000098209627    0.1400
56     H56     1.1224    2.5506   -3.8162 H        1 ZINC000098209627    0.1400
57     H57     2.6022    5.0106   -1.6194 H        1 ZINC000098209627    0.0900
58     H58     3.2737    3.8048   -0.4953 H        1 ZINC000098209627    0.0700
59     H59     5.4760    2.8518   -0.8654 H        1 ZINC000098209627    0.1200
60     H60     7.7103    3.1755   -1.8461 H        1 ZINC000098209627    0.1200
61     H61     7.7458    5.4820   -5.6817 H        1 ZINC000098209627    0.0800
62     H62     8.0822    6.7644   -4.4940 H        1 ZINC000098209627    0.0700
63     H63    10.3670    7.3821   -3.9460 H        1 ZINC000098209627    0.1300
64     H64    12.7025    7.4862   -4.7186 H        1 ZINC000098209627    0.1400
65     H65    11.8909    4.4260   -7.5793 H        1 ZINC000098209627    0.1400
66     H66     9.5574    4.3189   -6.8011 H        1 ZINC000098209627    0.1400
67     H67     6.1016    6.0842   -4.5325 H        1 ZINC000098209627    0.1200
68     H68     3.8695    5.7509   -3.5499 H        1 ZINC000098209627    0.1300
@<TRIPOS>BOND
1     1     2     1
2     1     42    1
3     1     43    1
4     1     44    1
5     2     3     1
6     2     4     1
7     2     5     1
8     3     45    1
9     3     46    1
10    3     47    1
11    4     48    1
12    4     49    1
13    4     50    1
14    5     6     am
15    5     51    1
16    6     7     2
17    6     8     1
18    8     9     1
19    8     10    1
20    8     23    1
21    10    22    1
22    10    11    2
23    11    12    1
24    11    15    1
25    12    13    ar
26    12    14    ar
27    15    16    1
28    15    52    1
29    16    22    ar
30    16    17    ar
31    17    18    ar
32    17    53    1
33    18    19    1
34    18    20    ar
35    20    21    ar
36    20    54    1
37    21    22    ar
38    21    55    1
39    23    24    am
40    23    26    1
41    24    25    2
42    24    56    1
43    26    27    1
44    26    57    1
45    26    58    1
46    27    41    ar
47    27    28    ar
48    28    29    ar
49    28    59    1
50    29    30    ar
51    29    60    1
52    30    31    1
53    30    40    ar
54    31    32    1
55    32    33    1
56    32    61    1
57    32    62    1
58    33    39    ar
59    33    34    ar
60    34    35    ar
61    34    63    1
62    35    36    ar
63    35    64    1
64    36    37    1
65    36    38    ar
66    38    39    ar
67    38    65    1
68    39    66    1
69    40    41    ar
70    40    67    1
71    41    68    1
@<TRIPOS>SUBSTRUCTURE
1   ZINC000098209627 1     RESIDUE    1   A     ZIN   1


@<TRIPOS>MOLECULE
O=C(NCC1=CC=CC=C1)[C@@H](N[C@@H](CC(C)C)C(NO)=O)C2=C(C(NO)=O)NC3=C2C=CC(Cl)=C3
63    65    1     0     0
SMALL
USER_CHARGES
@<TRIPOS>ATOM
1      C1     -2.9449    3.2476    0.4995 C.3      1 ZINC000098208112   -0.1500
2      C2     -3.1237    2.4579    1.7978 C.3      1 ZINC000098208112   -0.1100
3      C3     -4.4987    1.7869    1.8013 C.3      1 ZINC000098208112   -0.1500
4      C4     -2.0341    1.3886    1.8985 C.3      1 ZINC000098208112   -0.1000
5      C5     -0.6697    2.0638    2.0519 C.3      1 ZINC000098208112    0.0900
6      H6     -0.5252    2.7791    1.2422 H        1 ZINC000098208112    0.1000
7      N7      0.3886    1.0462    2.0010 N.3      1 ZINC000098208112   -0.6000
8      C8      1.6542    1.6259    1.5317 C.3      1 ZINC000098208112    0.1500
9      H9      1.7614    2.6349    1.9298 H        1 ZINC000098208112    0.0700
10     C10     1.6552    1.6774    0.0256 C.2      1 ZINC000098208112    0.5100
11     O11     0.8361    1.0416   -0.6035 O.2      1 ZINC000098208112   -0.4700
12     N12     2.5664    2.4300   -0.6223 N.am     1 ZINC000098208112   -0.7300
13     C13     2.5674    2.4800   -2.0865 C.3      1 ZINC000098208112    0.1700
14     C14     3.6764    3.3853   -2.5574 C.ar     1 ZINC000098208112   -0.1100
15     C15     3.4378    4.7351   -2.7365 C.ar     1 ZINC000098208112   -0.1000
16     C16     4.4550    5.5654   -3.1685 C.ar     1 ZINC000098208112   -0.1200
17     C17     5.7110    5.0461   -3.4209 C.ar     1 ZINC000098208112   -0.1100
18     C18     5.9499    3.6965   -3.2408 C.ar     1 ZINC000098208112   -0.1200
19     C19     4.9338    2.8669   -2.8048 C.ar     1 ZINC000098208112   -0.1000
20     C20     2.8033    0.7741    2.0060 C.2      1 ZINC000098208112   -0.0900
21     C21     2.8811   -0.5803    1.9307 C.2      1 ZINC000098208112    0.0700
22     C22     1.8489   -1.4634    1.3681 C.2      1 ZINC000098208112    0.5600
23     O23     0.8650   -0.9863    0.8350 O.2      1 ZINC000098208112   -0.4000
24     N24     1.9928   -2.8013    1.4432 N.am     1 ZINC000098208112   -0.6000
25     O25     1.0539   -3.6510    0.8094 O.3      1 ZINC000098208112   -0.3000
26     N26     4.0850   -0.9956    2.4672 N.pl3    1 ZINC000098208112   -0.5700
27     C27     4.7854    0.1092    2.8907 C.ar     1 ZINC000098208112    0.1300
28     C28     6.0285    0.2748    3.4939 C.ar     1 ZINC000098208112   -0.1200
29     C29     6.4735    1.5405    3.8098 C.ar     1 ZINC000098208112    0.0000
30     Cl30    8.0247    1.7438    4.5622 Cl       1 ZINC000098208112   -0.0600
31     C31     5.6918    2.6559    3.5311 C.ar     1 ZINC000098208112   -0.1300
32     C32     4.4696    2.5176    2.9406 C.ar     1 ZINC000098208112   -0.0500
33     C33     3.9980    1.2421    2.6044 C.ar     1 ZINC000098208112   -0.1000
34     C34    -0.6112    2.7836    3.3745 C.2      1 ZINC000098208112    0.4900
35     O35    -0.1795    2.2158    4.3554 O.2      1 ZINC000098208112   -0.5200
36     N36    -1.0387    4.0584    3.4674 N.am     1 ZINC000098208112   -0.5900
37     O37    -0.8965    4.7658    4.6858 O.3      1 ZINC000098208112   -0.3200
38     H38    -2.9169    2.5581   -0.3442 H        1 ZINC000098208112    0.0700
39     H39    -3.7790    3.9384    0.3767 H        1 ZINC000098208112    0.0600
40     H40    -2.0115    3.8088    0.5413 H        1 ZINC000098208112    0.0500
41     H41    -3.0479    3.1353    2.6484 H        1 ZINC000098208112    0.0700
42     H42    -4.5746    1.1095    0.9506 H        1 ZINC000098208112    0.0600
43     H43    -4.6261    1.2243    2.7262 H        1 ZINC000098208112    0.0600
44     H44    -5.2750    2.5487    1.7295 H        1 ZINC000098208112    0.0600
45     H45    -2.2255    0.7553    2.7647 H        1 ZINC000098208112    0.0700
46     H46    -2.0384    0.7792    0.9948 H        1 ZINC000098208112    0.1000
47     H47     0.5057    0.6011    2.8989 H        1 ZINC000098208112    0.3600
48     H48     3.2216    2.9385   -0.1192 H        1 ZINC000098208112    0.4000
49     H49     2.7234    1.4772   -2.4842 H        1 ZINC000098208112    0.0700
50     H50     1.6101    2.8653   -2.4375 H        1 ZINC000098208112    0.0800
51     H51     2.4565    5.1408   -2.5394 H        1 ZINC000098208112    0.1200
52     H52     4.2684    6.6198   -3.3092 H        1 ZINC000098208112    0.1200
53     H53     6.5056    5.6948   -3.7590 H        1 ZINC000098208112    0.1200
54     H54     6.9311    3.2908   -3.4383 H        1 ZINC000098208112    0.1200
55     H55     5.1204    1.8125   -2.6641 H        1 ZINC000098208112    0.1200
56     H56     2.7394   -3.1822    1.9313 H        1 ZINC000098208112    0.4000
57     H57     1.2401   -4.5936    0.9184 H        1 ZINC000098208112    0.3900
58     H58     4.3864   -1.9151    2.5339 H        1 ZINC000098208112    0.4200
59     H59     6.6426   -0.5859    3.7141 H        1 ZINC000098208112    0.1400
60     H60     6.0552    3.6408    3.7847 H        1 ZINC000098208112    0.1400
61     H61     3.8691    3.3899    2.7286 H        1 ZINC000098208112    0.1300
62     H62    -1.4437    4.4913    2.6997 H        1 ZINC000098208112    0.4100
63     H63    -1.1610    5.6945    4.6345 H        1 ZINC000098208112    0.3900
@<TRIPOS>BOND
1     1     2     1
2     1     38    1
3     1     39    1
4     1     40    1
5     2     3     1
6     2     4     1
7     2     41    1
8     3     42    1
9     3     43    1
10    3     44    1
11    4     5     1
12    4     45    1
13    4     46    1
14    5     6     1
15    5     7     1
16    5     34    1
17    7     8     1
18    7     47    1
19    8     9     1
20    8     10    1
21    8     20    1
22    10    11    2
23    10    12    am
24    12    13    1
25    12    48    1
26    13    14    1
27    13    49    1
28    13    50    1
29    14    19    ar
30    14    15    ar
31    15    16    ar
32    15    51    1
33    16    17    ar
34    16    52    1
35    17    18    ar
36    17    53    1
37    18    19    ar
38    18    54    1
39    19    55    1
40    20    33    1
41    20    21    2
42    21    22    1
43    21    26    1
44    22    23    2
45    22    24    am
46    24    25    1
47    24    56    1
48    25    57    1
49    26    27    1
50    26    58    1
51    27    33    ar
52    27    28    ar
53    28    29    ar
54    28    59    1
55    29    30    1
56    29    31    ar
57    31    32    ar
58    31    60    1
59    32    33    ar
60    32    61    1
61    34    35    2
62    34    36    am
63    36    37    1
64    36    62    1
65    37    63    1
@<TRIPOS>SUBSTRUCTURE
1   ZINC000098208112 1     RESIDUE    1   A     ZIN   1


@<TRIPOS>MOLECULE
CC(C)(C)C[C@@H](NC(C(NCCN1CCOCC1)=O)[C@@H]2C3=CC=CC(Cl)=C3F)[C@]2(C4=C(N5)C=C(Cl)C=C4)C5=O
75    79    1     0     0
SMALL
USER_CHARGES
@<TRIPOS>ATOM
1      C1      4.0235   -1.0129    2.4307 C.3      1 ZINC000036184574   -0.1600
2      C2      2.6104   -1.5972    2.4845 C.3      1 ZINC000036184574   -0.0700
3      C3      2.6893   -3.0961    2.7812 C.3      1 ZINC000036184574   -0.1700
4      C4      1.8120   -0.9003    3.5880 C.3      1 ZINC000036184574   -0.1500
5      C5      1.9170   -1.3796    1.1382 C.3      1 ZINC000036184574   -0.1400
6      C6      2.7851   -1.9566    0.0182 C.3      1 ZINC000036184574    0.0600
7      H7      3.8104   -1.5980    0.1091 H        1 ZINC000036184574    0.1700
8      N8      2.7500   -3.4437    0.0470 N.4      1 ZINC000036184574   -0.5100
9      H9      3.4223   -3.7993    0.7100 H        1 ZINC000036184574    0.4400
10     H10     1.8230   -3.7700    0.2757 H        1 ZINC000036184574    0.4400
11     C11     3.1193   -3.8485   -1.3347 C.3      1 ZINC000036184574    0.0100
12     H12     4.1997   -3.7971   -1.4699 H        1 ZINC000036184574    0.1700
13     C13     2.6201   -5.2403   -1.6257 C.2      1 ZINC000036184574    0.5100
14     O14     1.7262   -5.7159   -0.9580 O.2      1 ZINC000036184574   -0.5100
15     N15     3.1669   -5.9566   -2.6279 N.am     1 ZINC000036184574   -0.7000
16     C16     2.6368   -7.2827   -2.9545 C.3      1 ZINC000036184574    0.1100
17     C17     3.4293   -7.8757   -4.1211 C.3      1 ZINC000036184574    0.0400
18     N18     2.8978   -9.2054   -4.4485 N.3      1 ZINC000036184574   -0.5300
19     C19     2.7018  -10.0084   -3.2328 C.3      1 ZINC000036184574    0.0100
20     C20     2.0924  -11.3604   -3.6134 C.3      1 ZINC000036184574    0.0600
21     O21     2.9432  -12.0113   -4.5609 O.3      1 ZINC000036184574   -0.3800
22     C22     3.1552  -11.2573   -5.7575 C.3      1 ZINC000036184574    0.0600
23     C23     3.7754   -9.9043   -5.3986 C.3      1 ZINC000036184574    0.0200
24     C24     2.4125   -2.8181   -2.2455 C.3      1 ZINC000036184574   -0.0200
25     H25     1.4526   -3.2071   -2.5854 H        1 ZINC000036184574    0.1300
26     C26     3.2854   -2.4736   -3.4246 C.ar     1 ZINC000036184574   -0.1300
27     C27     4.6519   -2.3494   -3.2599 C.ar     1 ZINC000036184574   -0.0900
28     C28     5.4537   -2.0338   -4.3412 C.ar     1 ZINC000036184574   -0.1100
29     C29     4.8900   -1.8415   -5.5884 C.ar     1 ZINC000036184574   -0.0600
30     C30     3.5226   -1.9648   -5.7560 C.ar     1 ZINC000036184574   -0.0700
31     Cl31    2.8141   -1.7229   -7.3223 Cl       1 ZINC000036184574   -0.0200
32     C32     2.7193   -2.2871   -4.6741 C.ar     1 ZINC000036184574    0.1400
33     F33     1.3835   -2.4078   -4.8360 F        1 ZINC000036184574   -0.1200
34     C34     2.2068   -1.5852   -1.3538 C.3      1 ZINC000036184574   -0.0600
35     C35     0.7519   -1.2166   -1.2519 C.2      1 ZINC000036184574    0.5400
36     O36    -0.1450   -1.9172   -0.8327 O.2      1 ZINC000036184574   -0.4700
37     N37     0.6385    0.0425   -1.7171 N.am     1 ZINC000036184574   -0.6500
38     C38     1.8677    0.5671   -2.1223 C.ar     1 ZINC000036184574    0.1700
39     C39     2.1947    1.8110   -2.6554 C.ar     1 ZINC000036184574   -0.1300
40     C40     3.5038    2.1037   -2.9836 C.ar     1 ZINC000036184574    0.0200
41     Cl41    3.9014    3.6577   -3.6474 Cl       1 ZINC000036184574   -0.0300
42     C42     4.5001    1.1640   -2.7853 C.ar     1 ZINC000036184574   -0.1200
43     C43     4.1825   -0.0747   -2.2564 C.ar     1 ZINC000036184574   -0.0500
44     C44     2.8785   -0.3706   -1.9287 C.ar     1 ZINC000036184574   -0.1500
45     H45     4.5923   -1.5095    1.6446 H        1 ZINC000036184574    0.0500
46     H46     3.9673    0.0549    2.2194 H        1 ZINC000036184574    0.0700
47     H47     4.5175   -1.1680    3.3899 H        1 ZINC000036184574    0.0800
48     H48     2.7424   -3.2509    3.8588 H        1 ZINC000036184574    0.0900
49     H49     1.8026   -3.5919    2.3861 H        1 ZINC000036184574    0.0600
50     H50     3.5792   -3.5134    2.3099 H        1 ZINC000036184574    0.0500
51     H51     1.7558    0.1676    3.3767 H        1 ZINC000036184574    0.0600
52     H52     0.8054   -1.3165    3.6263 H        1 ZINC000036184574    0.0600
53     H53     2.3061   -1.0553    4.5472 H        1 ZINC000036184574    0.0700
54     H54     0.9492   -1.8811    1.1427 H        1 ZINC000036184574    0.1100
55     H55     1.7723   -0.3121    0.9724 H        1 ZINC000036184574    0.1200
56     H56     3.9114   -5.5940   -3.1330 H        1 ZINC000036184574    0.4100
57     H57     2.7272   -7.9342   -2.0853 H        1 ZINC000036184574    0.0900
58     H58     1.5872   -7.1953   -3.2354 H        1 ZINC000036184574    0.0900
59     H59     3.3389   -7.2241   -4.9902 H        1 ZINC000036184574    0.0900
60     H60     4.4789   -7.9630   -3.8402 H        1 ZINC000036184574    0.0500
61     H61     3.6623  -10.1672   -2.7427 H        1 ZINC000036184574    0.0500
62     H62     2.0287   -9.4838   -2.5546 H        1 ZINC000036184574    0.0900
63     H63     1.9982  -11.9809   -2.7223 H        1 ZINC000036184574    0.1000
64     H64     1.1081  -11.2045   -4.0550 H        1 ZINC000036184574    0.0600
65     H65     3.8297  -11.8033   -6.4171 H        1 ZINC000036184574    0.1000
66     H66     2.2018  -11.0984   -6.2614 H        1 ZINC000036184574    0.0600
67     H67     3.8860   -9.3037   -6.3015 H        1 ZINC000036184574    0.0900
68     H68     4.7531  -10.0614   -4.9431 H        1 ZINC000036184574    0.0500
69     H69     5.0938   -2.4986   -2.2858 H        1 ZINC000036184574    0.1400
70     H70     6.5215   -1.9371   -4.2110 H        1 ZINC000036184574    0.1500
71     H71     5.5173   -1.5947   -6.4322 H        1 ZINC000036184574    0.1500
72     H72    -0.1997    0.5282   -1.7653 H        1 ZINC000036184574    0.4300
73     H73     1.4222    2.5491   -2.8132 H        1 ZINC000036184574    0.1500
74     H74     5.5227    1.3967   -3.0430 H        1 ZINC000036184574    0.1500
75     H75     4.9582   -0.8099   -2.1009 H        1 ZINC000036184574    0.1500
@<TRIPOS>BOND
1     1     2     1
2     1     45    1
3     1     46    1
4     1     47    1
5     2     3     1
6     2     4     1
7     2     5     1
8     3     48    1
9     3     49    1
10    3     50    1
11    4     51    1
12    4     52    1
13    4     53    1
14    5     6     1
15    5     54    1
16    5     55    1
17    6     7     1
18    6     34    1
19    6     8     1
20    8     9     1
21    8     10    1
22    8     11    1
23    11    12    1
24    11    13    1
25    11    24    1
26    13    14    2
27    13    15    am
28    15    16    1
29    15    56    1
30    16    17    1
31    16    57    1
32    16    58    1
33    17    18    1
34    17    59    1
35    17    60    1
36    18    23    1
37    18    19    1
38    19    20    1
39    19    61    1
40    19    62    1
41    20    21    1
42    20    63    1
43    20    64    1
44    21    22    1
45    22    23    1
46    22    65    1
47    22    66    1
48    23    67    1
49    23    68    1
50    24    25    1
51    24    26    1
52    24    34    1
53    26    32    ar
54    26    27    ar
55    27    28    ar
56    27    69    1
57    28    29    ar
58    28    70    1
59    29    30    ar
60    29    71    1
61    30    31    1
62    30    32    ar
63    32    33    1
64    34    44    1
65    34    35    1
66    35    36    2
67    35    37    am
68    37    38    1
69    37    72    1
70    38    44    ar
71    38    39    ar
72    39    40    ar
73    39    73    1
74    40    41    1
75    40    42    ar
76    42    43    ar
77    42    74    1
78    43    44    ar
79    43    75    1
@<TRIPOS>SUBSTRUCTURE
1   ZINC000036184574 1     RESIDUE    1   A     ZIN   1


@<TRIPOS>MOLECULE
CC(C)(C)C[C@@H](N[C@@H](C(NCC[C@@H](O)CO)=O)[C@@H]1C2=CC=CC(Cl)=C2)[C@]1(C3=C(N4)C=C(Cl)C(F)=C3)C4=O
70    73    1     0     0
SMALL
USER_CHARGES
@<TRIPOS>ATOM
1      C1      0.3356    1.2069   -0.7552 C.3      1 ZINC000043195318   -0.1600
2      C2     -0.3167   -0.1392   -0.4334 C.3      1 ZINC000043195318   -0.0700
3      C3      0.0612   -0.5624    0.9875 C.3      1 ZINC000043195318   -0.1700
4      C4     -1.8373   -0.0071   -0.5388 C.3      1 ZINC000043195318   -0.1500
5      C5      0.1737   -1.1941   -1.4272 C.3      1 ZINC000043195318   -0.1500
6      C6      1.6924   -1.3382   -1.3100 C.3      1 ZINC000043195318    0.0600
7      H7      2.1721   -0.3609   -1.3642 H        1 ZINC000043195318    0.1700
8      N8      2.0531   -2.0247   -0.0402 N.4      1 ZINC000043195318   -0.5100
9      H9      2.0876   -1.3629    0.7207 H        1 ZINC000043195318    0.4400
10     H10     1.3931   -2.7605    0.1624 H        1 ZINC000043195318    0.4400
11     C11     3.4030   -2.5910   -0.2974 C.3      1 ZINC000043195318    0.0000
12     H12     4.1655   -1.8195   -0.1900 H        1 ZINC000043195318    0.1700
13     C13     3.6800   -3.7363    0.6421 C.2      1 ZINC000043195318    0.5100
14     O14     2.7631   -4.2871    1.2137 O.2      1 ZINC000043195318   -0.5100
15     N15     4.9467   -4.1486    0.8469 N.am     1 ZINC000043195318   -0.7000
16     C16     5.2160   -5.2620    1.7602 C.3      1 ZINC000043195318    0.1200
17     C17     6.7221   -5.5262    1.8121 C.3      1 ZINC000043195318   -0.1600
18     C18     7.0034   -6.6890    2.7659 C.3      1 ZINC000043195318    0.1100
19     H19     6.4200   -7.5579    2.4614 H        1 ZINC000043195318    0.1100
20     O20     6.6394   -6.3131    4.0956 O.3      1 ZINC000043195318   -0.5500
21     C21     8.4932   -7.0346    2.7233 C.3      1 ZINC000043195318    0.0400
22     O22     8.7365   -8.1932    3.5237 O.3      1 ZINC000043195318   -0.5600
23     C23     3.3445   -3.0914   -1.7591 C.3      1 ZINC000043195318   -0.0200
24     H24     3.0959   -4.1523   -1.7876 H        1 ZINC000043195318    0.1300
25     C25     4.6592   -2.8425   -2.4523 C.ar     1 ZINC000043195318   -0.0800
26     C26     5.4927   -1.8320   -2.0109 C.ar     1 ZINC000043195318   -0.1300
27     C27     6.6992   -1.6033   -2.6461 C.ar     1 ZINC000043195318   -0.0900
28     C28     7.0724   -2.3846   -3.7232 C.ar     1 ZINC000043195318   -0.0900
29     C29     6.2385   -3.3964   -4.1655 C.ar     1 ZINC000043195318   -0.0200
30     Cl30    6.7069   -4.3787   -5.5181 Cl       1 ZINC000043195318   -0.0400
31     C31     5.0340   -3.6284   -3.5260 C.ar     1 ZINC000043195318   -0.0900
32     C32     2.2300   -2.2611   -2.4116 C.3      1 ZINC000043195318   -0.0600
33     C33     1.1429   -3.1401   -2.9671 C.2      1 ZINC000043195318    0.5400
34     O34     0.4644   -3.9317   -2.3474 O.2      1 ZINC000043195318   -0.4600
35     N35     1.0692   -2.8775   -4.2862 N.am     1 ZINC000043195318   -0.6400
36     C36     1.9947   -1.9080   -4.6829 C.ar     1 ZINC000043195318    0.1600
37     C37     2.2508   -1.3535   -5.9340 C.ar     1 ZINC000043195318   -0.1000
38     C38     3.2316   -0.3928   -6.0810 C.ar     1 ZINC000043195318   -0.0300
39     Cl39    3.5426    0.2926   -7.6453 Cl       1 ZINC000043195318   -0.0100
40     C40     3.9682    0.0269   -4.9850 C.ar     1 ZINC000043195318    0.1000
41     F41     4.9263    0.9680   -5.1324 F        1 ZINC000043195318   -0.1100
42     C42     3.7188   -0.5216   -3.7373 C.ar     1 ZINC000043195318   -0.0800
43     C43     2.7417   -1.4802   -3.5890 C.ar     1 ZINC000043195318   -0.1200
44     H44     1.4190    1.1128   -0.6801 H        1 ZINC000043195318    0.0500
45     H45     0.0664    1.5083   -1.7674 H        1 ZINC000043195318    0.0700
46     H46    -0.0137    1.9584   -0.0472 H        1 ZINC000043195318    0.0700
47     H47    -0.5907   -0.0597    1.7019 H        1 ZINC000043195318    0.0900
48     H48    -0.0536   -1.6417    1.0878 H        1 ZINC000043195318    0.0600
49     H49     1.0973   -0.2873    1.1851 H        1 ZINC000043195318    0.0500
50     H50    -2.1066    0.2943   -1.5511 H        1 ZINC000043195318    0.0700
51     H51    -2.3021   -0.9661   -0.3095 H        1 ZINC000043195318    0.0600
52     H52    -2.1867    0.7444    0.1692 H        1 ZINC000043195318    0.0700
53     H53    -0.3001   -2.1503   -1.2053 H        1 ZINC000043195318    0.1100
54     H54    -0.0850   -0.8868   -2.4404 H        1 ZINC000043195318    0.1200
55     H55     5.6801   -3.7081    0.3897 H        1 ZINC000043195318    0.4100
56     H56     4.8569   -5.0087    2.7577 H        1 ZINC000043195318    0.0900
57     H57     4.7025   -6.1555    1.4051 H        1 ZINC000043195318    0.0800
58     H58     7.0812   -5.7794    0.8146 H        1 ZINC000043195318    0.0900
59     H59     7.2357   -4.6327    2.1672 H        1 ZINC000043195318    0.0800
60     H60     7.1203   -5.5448    4.4328 H        1 ZINC000043195318    0.3800
61     H61     8.7904   -7.2352    1.6940 H        1 ZINC000043195318    0.0600
62     H62     9.0719   -6.1966    3.1118 H        1 ZINC000043195318    0.0500
63     H63     9.6626   -8.4705    3.5430 H        1 ZINC000043195318    0.3900
64     H64     5.2011   -1.2207   -1.1697 H        1 ZINC000043195318    0.1300
65     H65     7.3500   -0.8136   -2.3008 H        1 ZINC000043195318    0.1500
66     H66     8.0146   -2.2054   -4.2197 H        1 ZINC000043195318    0.1400
67     H67     4.3827   -4.4179   -3.8708 H        1 ZINC000043195318    0.1400
68     H68     0.4465   -3.3110   -4.8906 H        1 ZINC000043195318    0.4300
69     H69     1.6806   -1.6761   -6.7926 H        1 ZINC000043195318    0.1600
70     H70     4.2910   -0.1970   -2.8807 H        1 ZINC000043195318    0.1500
@<TRIPOS>BOND
1     1     2     1
2     1     44    1
3     1     45    1
4     1     46    1
5     2     3     1
6     2     4     1
7     2     5     1
8     3     47    1
9     3     48    1
10    3     49    1
11    4     50    1
12    4     51    1
13    4     52    1
14    5     6     1
15    5     53    1
16    5     54    1
17    6     7     1
18    6     32    1
19    6     8     1
20    8     9     1
21    8     10    1
22    8     11    1
23    11    12    1
24    11    13    1
25    11    23    1
26    13    14    2
27    13    15    am
28    15    16    1
29    15    55    1
30    16    17    1
31    16    56    1
32    16    57    1
33    17    18    1
34    17    58    1
35    17    59    1
36    18    19    1
37    18    20    1
38    18    21    1
39    20    60    1
40    21    22    1
41    21    61    1
42    21    62    1
43    22    63    1
44    23    24    1
45    23    25    1
46    23    32    1
47    25    31    ar
48    25    26    ar
49    26    27    ar
50    26    64    1
51    27    28    ar
52    27    65    1
53    28    29    ar
54    28    66    1
55    29    30    1
56    29    31    ar
57    31    67    1
58    32    43    1
59    32    33    1
60    33    34    2
61    33    35    am
62    35    36    1
63    35    68    1
64    36    43    ar
65    36    37    ar
66    37    38    ar
67    37    69    1
68    38    39    1
69    38    40    ar
70    40    41    1
71    40    42    ar
72    42    43    ar
73    42    70    1
@<TRIPOS>SUBSTRUCTURE
1   ZINC000043195318 1     RESIDUE    1   A     ZIN   1


@<TRIPOS>MOLECULE
CC(C)(C)C[C@@H]1[C@@]2(C(C=CC(Cl)=C3)=C3NC2=O)[C@@H](C4=CC(Cl)=CC=C4)[C@H](C(N(C)C)=O)N1
62    65    1     0     0
SMALL
USER_CHARGES
@<TRIPOS>ATOM
1      C1     -0.2492    1.4175    1.1877 C.3      1 ZINC000036184576    0.0800
2      N2     -0.2347   -0.0464    1.1328 N.am     1 ZINC000036184576   -0.5900
3      C3      1.0067   -0.7772    1.3992 C.3      1 ZINC000036184576    0.0500
4      C4     -1.3636   -0.7208    0.8371 C.2      1 ZINC000036184576    0.5100
5      O5     -2.3913   -0.1158    0.6166 O.2      1 ZINC000036184576   -0.5100
6      C6     -1.3487   -2.2266    0.7806 C.3      1 ZINC000036184576    0.0000
7      H7     -0.4371   -2.5791    0.2981 H        1 ZINC000036184576    0.1700
8      N8     -2.5459   -2.7299    0.0574 N.4      1 ZINC000036184576   -0.5100
9      H9     -3.3581   -2.1806    0.2952 H        1 ZINC000036184576    0.4400
10     H10    -2.3885   -2.7132   -0.9391 H        1 ZINC000036184576    0.4400
11     C11    -2.7060   -4.1291    0.5373 C.3      1 ZINC000036184576    0.0600
12     H12    -2.0173   -4.7924    0.0140 H        1 ZINC000036184576    0.1700
13     C13    -4.1493   -4.5986    0.3441 C.3      1 ZINC000036184576   -0.1500
14     C14    -4.4558   -4.7031   -1.1513 C.3      1 ZINC000036184576   -0.0700
15     C15    -3.3955   -5.5728   -1.8296 C.3      1 ZINC000036184576   -0.1600
16     C16    -5.8352   -5.3356   -1.3462 C.3      1 ZINC000036184576   -0.1500
17     C17    -4.4432   -3.3053   -1.7733 C.3      1 ZINC000036184576   -0.1700
18     C18    -2.3563   -4.0622    2.0301 C.3      1 ZINC000036184576   -0.0600
19     C19    -3.5953   -3.9792    2.8792 C.2      1 ZINC000036184576    0.5400
20     O20    -4.4464   -3.1162    2.8358 O.2      1 ZINC000036184576   -0.4700
21     N21    -3.5762   -5.0494    3.6968 N.am     1 ZINC000036184576   -0.6500
22     C22    -2.4502   -5.8496    3.4911 C.ar     1 ZINC000036184576    0.1700
23     C23    -2.0469   -7.0294    4.1108 C.ar     1 ZINC000036184576   -0.1200
24     C24    -0.8722   -7.6474    3.7302 C.ar     1 ZINC000036184576    0.0200
25     Cl25   -0.3778   -9.1181    4.5091 Cl       1 ZINC000036184576   -0.0300
26     C26    -0.0874   -7.1000    2.7305 C.ar     1 ZINC000036184576   -0.1200
27     C27    -0.4822   -5.9282    2.1094 C.ar     1 ZINC000036184576   -0.0400
28     C28    -1.6527   -5.3090    2.4859 C.ar     1 ZINC000036184576   -0.1400
29     C29    -1.4702   -2.8208    2.2030 C.3      1 ZINC000036184576   -0.0200
30     H30    -1.9463   -2.1046    2.8727 H        1 ZINC000036184576    0.1300
31     C31    -0.1149   -3.2127    2.7329 C.ar     1 ZINC000036184576   -0.0800
32     C32     0.8668   -3.6500    1.8637 C.ar     1 ZINC000036184576   -0.1300
33     C33     2.1106   -4.0093    2.3490 C.ar     1 ZINC000036184576   -0.0900
34     C34     2.3728   -3.9319    3.7036 C.ar     1 ZINC000036184576   -0.0900
35     C35     1.3904   -3.4942    4.5743 C.ar     1 ZINC000036184576   -0.0200
36     Cl36    1.7192   -3.3960    6.2760 Cl       1 ZINC000036184576   -0.0400
37     C37     0.1480   -3.1293    4.0875 C.ar     1 ZINC000036184576   -0.0900
38     H38     0.7470    1.7815    1.4394 H        1 ZINC000036184576    0.0900
39     H39    -0.5466    1.8146    0.2172 H        1 ZINC000036184576    0.0800
40     H40    -0.9586    1.7456    1.9475 H        1 ZINC000036184576    0.0800
41     H41     1.0767   -0.9983    2.4643 H        1 ZINC000036184576    0.0800
42     H42     1.0082   -1.7091    0.8338 H        1 ZINC000036184576    0.0800
43     H43     1.8588   -0.1680    1.0978 H        1 ZINC000036184576    0.0900
44     H44    -4.2792   -5.5751    0.8107 H        1 ZINC000036184576    0.1200
45     H45    -4.8293   -3.8823    0.8052 H        1 ZINC000036184576    0.1100
46     H46    -3.4045   -6.5686   -1.3865 H        1 ZINC000036184576    0.0700
47     H47    -3.6138   -5.6472   -2.8950 H        1 ZINC000036184576    0.0800
48     H48    -2.4127   -5.1222   -1.6908 H        1 ZINC000036184576    0.0500
49     H49    -6.5906   -4.7160   -0.8629 H        1 ZINC000036184576    0.0600
50     H50    -6.0536   -5.4101   -2.4115 H        1 ZINC000036184576    0.0700
51     H51    -5.8442   -6.3314   -0.9030 H        1 ZINC000036184576    0.0600
52     H52    -3.4144   -3.0062   -1.9739 H        1 ZINC000036184576    0.0400
53     H53    -5.0064   -3.3178   -2.7064 H        1 ZINC000036184576    0.0900
54     H54    -4.8997   -2.5962   -1.0828 H        1 ZINC000036184576    0.0700
55     H55    -4.2644   -5.2418    4.3528 H        1 ZINC000036184576    0.4300
56     H56    -2.6546   -7.4622    4.8917 H        1 ZINC000036184576    0.1500
57     H57     0.8310   -7.5860    2.4360 H        1 ZINC000036184576    0.1500
58     H58     0.1284   -5.4990    1.3288 H        1 ZINC000036184576    0.1500
59     H59     0.6621   -3.7114    0.8050 H        1 ZINC000036184576    0.1300
60     H60     2.8772   -4.3510    1.6694 H        1 ZINC000036184576    0.1500
61     H61     3.3441   -4.2133    4.0827 H        1 ZINC000036184576    0.1400
62     H62    -0.6191   -2.7876    4.7665 H        1 ZINC000036184576    0.1300
@<TRIPOS>BOND
1     1     2     1
2     1     38    1
3     1     39    1
4     1     40    1
5     2     3     1
6     2     4     am
7     3     41    1
8     3     42    1
9     3     43    1
10    4     5     2
11    4     6     1
12    6     7     1
13    6     29    1
14    6     8     1
15    8     9     1
16    8     10    1
17    8     11    1
18    11    12    1
19    11    13    1
20    11    18    1
21    13    14    1
22    13    44    1
23    13    45    1
24    14    15    1
25    14    16    1
26    14    17    1
27    15    46    1
28    15    47    1
29    15    48    1
30    16    49    1
31    16    50    1
32    16    51    1
33    17    52    1
34    17    53    1
35    17    54    1
36    18    28    1
37    18    19    1
38    18    29    1
39    19    20    2
40    19    21    am
41    21    22    1
42    21    55    1
43    22    28    ar
44    22    23    ar
45    23    24    ar
46    23    56    1
47    24    25    1
48    24    26    ar
49    26    27    ar
50    26    57    1
51    27    28    ar
52    27    58    1
53    29    30    1
54    29    31    1
55    31    37    ar
56    31    32    ar
57    32    33    ar
58    32    59    1
59    33    34    ar
60    33    60    1
61    34    35    ar
62    34    61    1
63    35    36    1
64    35    37    ar
65    37    62    1
@<TRIPOS>SUBSTRUCTURE
1   ZINC000036184576 1     RESIDUE    1   A     ZIN   1


@<TRIPOS>MOLECULE
CC(C)(C)C[C@H]1[C@]2(C(SC(Cl)=C3)=C3NC2=O)[C@@H](C4=C(F)C(Cl)=CC=C4)[C@H](C(NC5=C(OC)C=C(C(N)=O)C=C5)=O)N1
71    75    1     0     0
SMALL
USER_CHARGES
@<TRIPOS>ATOM
1      C1      3.5324    0.0084    1.6002 C.3      1 ZINC000098208075    0.0200
2      O2      3.0699   -1.2847    1.2052 O.3      1 ZINC000098208075   -0.3200
3      C3      1.7479   -1.4038    0.9097 C.ar     1 ZINC000098208075    0.1200
4      C4      0.9196   -0.3021    0.9926 C.ar     1 ZINC000098208075   -0.1300
5      C5     -0.4386   -0.4279    0.6877 C.ar     1 ZINC000098208075   -0.0900
6      C6     -1.3277    0.7472    0.7746 C.2      1 ZINC000098208075    0.5600
7      N7     -2.6372    0.6246    0.4803 N.am     1 ZINC000098208075   -0.8500
8      O8     -0.8787    1.8257    1.1116 O.2      1 ZINC000098208075   -0.5300
9      C9     -0.9532   -1.6673    0.3003 C.ar     1 ZINC000098208075   -0.1000
10     C10    -0.1226   -2.7638    0.2195 C.ar     1 ZINC000098208075   -0.0900
11     C11     1.2289   -2.6385    0.5168 C.ar     1 ZINC000098208075    0.1100
12     N12     2.0670   -3.7520    0.4331 N.am     1 ZINC000098208075   -0.6300
13     C13     1.5835   -4.9811    0.7018 C.2      1 ZINC000098208075    0.5100
14     O14     0.4019   -5.1313    0.9304 O.2      1 ZINC000098208075   -0.5000
15     C15     2.5111   -6.1686    0.7184 C.3      1 ZINC000098208075    0.0100
16     H16     3.2276   -6.1017   -0.1004 H        1 ZINC000098208075    0.1800
17     N17     1.7355   -7.4334    0.6262 N.4      1 ZINC000098208075   -0.5100
18     H18     0.9615   -7.3264   -0.0121 H        1 ZINC000098208075    0.4400
19     H19     2.3323   -8.1921    0.3326 H        1 ZINC000098208075    0.4300
20     C20     1.2398   -7.6645    2.0100 C.3      1 ZINC000098208075    0.0500
21     H21     0.3601   -7.0517    2.2068 H        1 ZINC000098208075    0.1800
22     C22     0.9171   -9.1450    2.2220 C.3      1 ZINC000098208075   -0.1400
23     C23    -0.2981   -9.5284    1.3751 C.3      1 ZINC000098208075   -0.0700
24     C24     0.0348   -9.3450   -0.1069 C.3      1 ZINC000098208075   -0.1700
25     C25    -0.6625  -10.9908    1.6388 C.3      1 ZINC000098208075   -0.1500
26     C26    -1.4817   -8.6329    1.7466 C.3      1 ZINC000098208075   -0.1600
27     C27     2.4057   -7.2331    2.9088 C.3      1 ZINC000098208075   -0.0200
28     C28     3.2142   -8.4122    3.3691 C.2      1 ZINC000098208075    0.5500
29     O29     3.8009   -9.2123    2.6710 O.2      1 ZINC000098208075   -0.4700
30     N30     3.1558   -8.4001    4.7121 N.am     1 ZINC000098208075   -0.6400
31     C31     2.3805   -7.3156    5.2009 C.2      1 ZINC000098208075    0.1600
32     C32     1.9077   -6.5842    4.1757 C.2      1 ZINC000098208075   -0.3000
33     S33     0.9465   -5.2375    4.7748 S.3      1 ZINC000098208075    0.2800
34     C34     1.2290   -5.7322    6.4362 C.2      1 ZINC000098208075   -0.1100
35     Cl35    0.6083   -4.9200    7.8394 Cl       1 ZINC000098208075    0.0300
36     C36     1.9881   -6.8213    6.4575 C.2      1 ZINC000098208075   -0.1200
37     C37     3.2489   -6.2577    2.0745 C.3      1 ZINC000098208075   -0.0200
38     H38     3.2837   -5.2795    2.5541 H        1 ZINC000098208075    0.1500
39     C39     4.6428   -6.7982    1.8846 C.ar     1 ZINC000098208075   -0.1500
40     C40     4.9018   -7.7010    0.8710 C.ar     1 ZINC000098208075   -0.0600
41     C41     6.1804   -8.1971    0.6957 C.ar     1 ZINC000098208075   -0.1000
42     C42     7.2015   -7.7913    1.5341 C.ar     1 ZINC000098208075   -0.0600
43     C43     6.9450   -6.8881    2.5499 C.ar     1 ZINC000098208075   -0.0700
44     Cl44    8.2271   -6.3785    3.6035 Cl       1 ZINC000098208075   -0.0200
45     C45     5.6652   -6.3859    2.7221 C.ar     1 ZINC000098208075    0.1300
46     F46     5.4128   -5.5037    3.7136 F        1 ZINC000098208075   -0.1100
47     H47     4.6018   -0.0356    1.8065 H        1 ZINC000098208075    0.1100
48     H48     3.3463    0.7217    0.7973 H        1 ZINC000098208075    0.0600
49     H49     3.0018    0.3254    2.4981 H        1 ZINC000098208075    0.0600
50     H50     1.3205    0.6548    1.2929 H        1 ZINC000098208075    0.1500
51     H51    -2.9955   -0.2358    0.2115 H        1 ZINC000098208075    0.4000
52     H52    -3.2215    1.3968    0.5374 H        1 ZINC000098208075    0.4100
53     H53    -2.0024   -1.7664    0.0643 H        1 ZINC000098208075    0.1400
54     H54    -0.5220   -3.7215   -0.0799 H        1 ZINC000098208075    0.1600
55     H55     2.9972   -3.6411    0.1816 H        1 ZINC000098208075    0.4300
56     H56     1.7733   -9.7499    1.9237 H        1 ZINC000098208075    0.1100
57     H57     0.6965   -9.3216    3.2748 H        1 ZINC000098208075    0.1200
58     H58     1.0734   -9.6246   -0.2833 H        1 ZINC000098208075    0.0600
59     H59    -0.6189   -9.9779   -0.7072 H        1 ZINC000098208075    0.0900
60     H60    -0.1131   -8.3018   -0.3861 H        1 ZINC000098208075    0.0500
61     H61    -0.8997  -11.1215    2.6946 H        1 ZINC000098208075    0.0600
62     H62    -1.5282  -11.2640    1.0354 H        1 ZINC000098208075    0.0700
63     H63     0.1807  -11.6288    1.3741 H        1 ZINC000098208075    0.0600
64     H64    -1.2221   -7.5911    1.5588 H        1 ZINC000098208075    0.0600
65     H65    -2.3474   -8.9061    1.1433 H        1 ZINC000098208075    0.0700
66     H66    -1.7189   -8.7636    2.8024 H        1 ZINC000098208075    0.0700
67     H67     3.5914   -9.0549    5.2800 H        1 ZINC000098208075    0.4300
68     H68     2.2849   -7.2972    7.3804 H        1 ZINC000098208075    0.1700
69     H69     4.1048   -8.0196    0.2154 H        1 ZINC000098208075    0.1200
70     H70     6.3814   -8.9026   -0.0969 H        1 ZINC000098208075    0.1500
71     H71     8.1998   -8.1797    1.3964 H        1 ZINC000098208075    0.1500
@<TRIPOS>BOND
1     1     2     1
2     1     47    1
3     1     48    1
4     1     49    1
5     2     3     1
6     3     11    ar
7     3     4     ar
8     4     5     ar
9     4     50    1
10    5     6     1
11    5     9     ar
12    6     7     am
13    6     8     2
14    7     51    1
15    7     52    1
16    9     10    ar
17    9     53    1
18    10    11    ar
19    10    54    1
20    11    12    1
21    12    13    am
22    12    55    1
23    13    14    2
24    13    15    1
25    15    16    1
26    15    37    1
27    15    17    1
28    17    18    1
29    17    19    1
30    17    20    1
31    20    21    1
32    20    22    1
33    20    27    1
34    22    23    1
35    22    56    1
36    22    57    1
37    23    24    1
38    23    25    1
39    23    26    1
40    24    58    1
41    24    59    1
42    24    60    1
43    25    61    1
44    25    62    1
45    25    63    1
46    26    64    1
47    26    65    1
48    26    66    1
49    27    32    1
50    27    28    1
51    27    37    1
52    28    29    2
53    28    30    am
54    30    31    1
55    30    67    1
56    31    36    1
57    31    32    2
58    32    33    1
59    33    34    1
60    34    35    1
61    34    36    2
62    36    68    1
63    37    38    1
64    37    39    1
65    39    45    ar
66    39    40    ar
67    40    41    ar
68    40    69    1
69    41    42    ar
70    41    70    1
71    42    43    ar
72    42    71    1
73    43    44    1
74    43    45    ar
75    45    46    1
@<TRIPOS>SUBSTRUCTURE
1   ZINC000098208075 1     RESIDUE    1   A     ZIN   1


@<TRIPOS>MOLECULE
CC(C)(C)C[C@H]1[C@]2(C(C=NC(Cl)=C3)=C3NC2=O)[C@@H](C4=C(F)C(Cl)=CC=C4)[C@H](C(NC5=C(OC)C=C(C(N)=O)C=C5)=O)N1
73    77    1     0     0
SMALL
USER_CHARGES
@<TRIPOS>ATOM
1      C1      2.6345    0.6532   -0.5697 C.3      1 ZINC000103253996    0.0200
2      O2      2.3308   -0.7064   -0.2511 O.3      1 ZINC000103253996   -0.3200
3      C3      1.0504   -0.9839    0.1129 C.ar     1 ZINC000103253996    0.1100
4      C4      0.1102    0.0265    0.1562 C.ar     1 ZINC000103253996   -0.1300
5      C5     -1.2052   -0.2623    0.5304 C.ar     1 ZINC000103253996   -0.1000
6      C6     -2.2137    0.8145    0.5777 C.2      1 ZINC000103253996    0.5600
7      N7     -3.4818    0.5348    0.9386 N.am     1 ZINC000103253996   -0.8500
8      O8     -1.9005    1.9538    0.2909 O.2      1 ZINC000103253996   -0.5300
9      C9     -1.5639   -1.5717    0.8591 C.ar     1 ZINC000103253996   -0.1000
10     C10    -0.6219   -2.5762    0.8148 C.ar     1 ZINC000103253996   -0.1000
11     C11     0.6846   -2.2912    0.4374 C.ar     1 ZINC000103253996    0.1200
12     N12     1.6358   -3.3123    0.3934 N.am     1 ZINC000103253996   -0.6300
13     C13     1.2429   -4.5936    0.2507 C.2      1 ZINC000103253996    0.5100
14     O14     0.0733   -4.8516    0.0598 O.2      1 ZINC000103253996   -0.5000
15     C15     2.2568   -5.7058    0.3283 C.3      1 ZINC000103253996   -0.0100
16     H16     2.9719   -5.5013    1.1251 H        1 ZINC000103253996    0.1800
17     N17     1.5739   -6.9941    0.5819 N.4      1 ZINC000103253996   -0.5000
18     H18     2.1568   -7.5903    1.1500 H        1 ZINC000103253996    0.4400
19     H19     0.6891   -6.8340    1.0398 H        1 ZINC000103253996    0.4400
20     C20     1.3564   -7.6125   -0.7535 C.3      1 ZINC000103253996    0.0600
21     H21     0.4814   -7.1811   -1.2396 H        1 ZINC000103253996    0.1700
22     C22     1.2095   -9.1303   -0.6285 C.3      1 ZINC000103253996   -0.1400
23     C23    -0.0875   -9.4578    0.1141 C.3      1 ZINC000103253996   -0.0700
24     C24    -1.2611   -8.7619   -0.5782 C.3      1 ZINC000103253996   -0.1600
25     C25    -0.3134  -10.9710    0.1031 C.3      1 ZINC000103253996   -0.1500
26     C26     0.0150   -8.9678    1.5599 C.3      1 ZINC000103253996   -0.1700
27     C27     2.6382   -7.2487   -1.5204 C.3      1 ZINC000103253996   -0.0600
28     C28     3.7425   -8.2315   -1.2509 C.2      1 ZINC000103253996    0.5500
29     O29     4.2201   -8.5071   -0.1708 O.2      1 ZINC000103253996   -0.4600
30     N30     4.0983   -8.7475   -2.4452 N.am     1 ZINC000103253996   -0.6400
31     C31     3.3507   -8.2164   -3.4896 C.ar     1 ZINC000103253996    0.2200
32     C32     3.3708   -8.4517   -4.8638 C.ar     1 ZINC000103253996   -0.1700
33     C33     2.4925   -7.7622   -5.6764 C.ar     1 ZINC000103253996    0.2200
34     Cl34    2.5101   -8.0478   -7.3887 Cl       1 ZINC000103253996    0.0100
35     N35     1.6393   -6.8897   -5.1723 N.ar     1 ZINC000103253996   -0.4700
36     C36     1.5880   -6.6389   -3.8755 C.ar     1 ZINC000103253996    0.1900
37     C37     2.4298   -7.2847   -3.0038 C.ar     1 ZINC000103253996   -0.2100
38     C38     2.9955   -5.8386   -1.0195 C.3      1 ZINC000103253996   -0.0100
39     H39     2.6404   -5.0851   -1.7225 H        1 ZINC000103253996    0.1500
40     C40     4.4846   -5.7128   -0.8250 C.ar     1 ZINC000103253996   -0.1500
41     C41     5.2627   -5.1284   -1.8062 C.ar     1 ZINC000103253996   -0.0600
42     C42     6.6290   -5.0120   -1.6285 C.ar     1 ZINC000103253996   -0.1000
43     C43     7.2188   -5.4803   -0.4696 C.ar     1 ZINC000103253996   -0.0600
44     C44     6.4424   -6.0660    0.5140 C.ar     1 ZINC000103253996   -0.0700
45     Cl45    7.1830   -6.6547    1.9695 Cl       1 ZINC000103253996   -0.0200
46     C46     5.0725   -6.1774    0.3391 C.ar     1 ZINC000103253996    0.1300
47     F47     4.3127   -6.7492    1.2987 F        1 ZINC000103253996   -0.1200
48     H48     3.6865    0.7361   -0.8428 H        1 ZINC000103253996    0.1100
49     H49     2.0154    0.9773   -1.4062 H        1 ZINC000103253996    0.0600
50     H50     2.4333    1.2831    0.2968 H        1 ZINC000103253996    0.0600
51     H51     0.3907    1.0379   -0.0982 H        1 ZINC000103253996    0.1500
52     H52    -3.7317   -0.3742    1.1673 H        1 ZINC000103253996    0.4000
53     H53    -4.1445    1.2424    0.9696 H        1 ZINC000103253996    0.4100
54     H54    -2.5798   -1.7966    1.1485 H        1 ZINC000103253996    0.1400
55     H55    -0.9007   -3.5881    1.0696 H        1 ZINC000103253996    0.1600
56     H56     2.5794   -3.0996    0.4655 H        1 ZINC000103253996    0.4300
57     H57     1.1812   -9.5757   -1.6230 H        1 ZINC000103253996    0.1200
58     H58     2.0572   -9.5330   -0.0741 H        1 ZINC000103253996    0.1000
59     H59    -1.3342   -9.1109   -1.6082 H        1 ZINC000103253996    0.0700
60     H60    -2.1852   -8.9952   -0.0492 H        1 ZINC000103253996    0.0800
61     H61    -1.1002   -7.6839   -0.5704 H        1 ZINC000103253996    0.0600
62     H62     0.5228  -11.4667    0.5963 H        1 ZINC000103253996    0.0600
63     H63    -1.2374  -11.2042    0.6322 H        1 ZINC000103253996    0.0700
64     H64    -0.3864  -11.3200   -0.9269 H        1 ZINC000103253996    0.0600
65     H65    -0.2135   -7.9028    1.5997 H        1 ZINC000103253996    0.0500
66     H66    -0.6948   -9.5151    2.1802 H        1 ZINC000103253996    0.0900
67     H67     1.0263   -9.1366    1.9298 H        1 ZINC000103253996    0.0600
68     H68     4.7955   -9.4117   -2.5618 H        1 ZINC000103253996    0.4300
69     H69     4.0643   -9.1633   -5.2870 H        1 ZINC000103253996    0.1600
70     H70     0.8771   -5.9189   -3.4979 H        1 ZINC000103253996    0.1700
71     H71     4.8034   -4.7626   -2.7127 H        1 ZINC000103253996    0.1500
72     H72     7.2359   -4.5551   -2.3962 H        1 ZINC000103253996    0.1500
73     H73     8.2861   -5.3891   -0.3321 H        1 ZINC000103253996    0.1600
@<TRIPOS>BOND
1     1     2     1
2     1     48    1
3     1     49    1
4     1     50    1
5     2     3     1
6     3     11    ar
7     3     4     ar
8     4     5     ar
9     4     51    1
10    5     6     1
11    5     9     ar
12    6     7     am
13    6     8     2
14    7     52    1
15    7     53    1
16    9     10    ar
17    9     54    1
18    10    11    ar
19    10    55    1
20    11    12    1
21    12    13    am
22    12    56    1
23    13    14    2
24    13    15    1
25    15    16    1
26    15    38    1
27    15    17    1
28    17    18    1
29    17    19    1
30    17    20    1
31    20    21    1
32    20    22    1
33    20    27    1
34    22    23    1
35    22    57    1
36    22    58    1
37    23    24    1
38    23    25    1
39    23    26    1
40    24    59    1
41    24    60    1
42    24    61    1
43    25    62    1
44    25    63    1
45    25    64    1
46    26    65    1
47    26    66    1
48    26    67    1
49    27    37    1
50    27    28    1
51    27    38    1
52    28    29    2
53    28    30    am
54    30    31    1
55    30    68    1
56    31    37    ar
57    31    32    ar
58    32    33    ar
59    32    69    1
60    33    34    1
61    33    35    ar
62    35    36    ar
63    36    37    ar
64    36    70    1
65    38    39    1
66    38    40    1
67    40    46    ar
68    40    41    ar
69    41    42    ar
70    41    71    1
71    42    43    ar
72    42    72    1
73    43    44    ar
74    43    73    1
75    44    45    1
76    44    46    ar
77    46    47    1
@<TRIPOS>SUBSTRUCTURE
1   ZINC000103253996 1     RESIDUE    1   A     ZIN   1


@<TRIPOS>MOLECULE
CC(C)(C)C[C@@H](NC(C(N[C@@H]1CC[C@@H](O)CC1)=O)[C@@H]2C3=CC=CC(Cl)=C3F)[C@]2(C4=C(N5)C=C(Cl)C=C4)C5=O
73    77    1     0     0
SMALL
USER_CHARGES
@<TRIPOS>ATOM
1      C1      0.7375   -0.8178    0.5559 C.3      1 ZINC000096269677   -0.1800
2      C2      1.2423   -2.0572   -0.1858 C.3      1 ZINC000096269677   -0.0800
3      C3      2.5116   -2.5759    0.4928 C.3      1 ZINC000096269677   -0.1600
4      C4      0.1661   -3.1443   -0.1537 C.3      1 ZINC000096269677   -0.1400
5      C5      1.5538   -1.6907   -1.6383 C.3      1 ZINC000096269677   -0.1400
6      C6      2.7402   -0.7254   -1.6775 C.3      1 ZINC000096269677    0.0500
7      H7      3.5378   -1.0767   -1.0227 H        1 ZINC000096269677    0.1700
8      N8      2.3100    0.6435   -1.2844 N.4      1 ZINC000096269677   -0.5100
9      H9      1.6368    0.5995   -0.5340 H        1 ZINC000096269677    0.4400
10     H10     3.1069    1.1985   -1.0108 H        1 ZINC000096269677    0.4400
11     C11     1.6834    1.1999   -2.5122 C.3      1 ZINC000096269677    0.0000
12     H12     0.6658    0.8252   -2.6228 H        1 ZINC000096269677    0.1700
13     C13     1.6854    2.7062   -2.4667 C.2      1 ZINC000096269677    0.5100
14     O14     2.4328    3.2891   -1.7100 O.2      1 ZINC000096269677   -0.5200
15     N15     0.8566    3.4057   -3.2669 N.am     1 ZINC000096269677   -0.6900
16     C16     0.8585    4.8700   -3.2227 C.3      1 ZINC000096269677    0.1400
17     C17     1.9593    5.4065   -4.1400 C.3      1 ZINC000096269677   -0.1300
18     C18     1.9613    6.9358   -4.0938 C.3      1 ZINC000096269677   -0.1100
19     C19     0.6039    7.4620   -4.5643 C.3      1 ZINC000096269677    0.1000
20     O20     0.3622    7.0262   -5.9036 O.3      1 ZINC000096269677   -0.5600
21     C21    -0.4969    6.9255   -3.6470 C.3      1 ZINC000096269677   -0.1500
22     C22    -0.4989    5.3962   -3.6932 C.3      1 ZINC000096269677   -0.1200
23     C23     2.5738    0.6918   -3.6696 C.3      1 ZINC000096269677   -0.0200
24     H24     3.3193    1.4422   -3.9328 H        1 ZINC000096269677    0.1400
25     C25     1.7296    0.3485   -4.8698 C.ar     1 ZINC000096269677   -0.1500
26     C26     0.4887   -0.2349   -4.6977 C.ar     1 ZINC000096269677   -0.0500
27     C27    -0.2869   -0.5499   -5.7982 C.ar     1 ZINC000096269677   -0.1000
28     C28     0.1778   -0.2823   -7.0721 C.ar     1 ZINC000096269677   -0.0600
29     C29     1.4196    0.3011   -7.2473 C.ar     1 ZINC000096269677   -0.0800
30     Cl30    2.0038    0.6369   -8.8472 Cl       1 ZINC000096269677   -0.0300
31     C31     2.1946    0.6226   -6.1447 C.ar     1 ZINC000096269677    0.1400
32     F32     3.4078    1.1924   -6.3138 F        1 ZINC000096269677   -0.1200
33     C33     3.2561   -0.5679   -3.1140 C.3      1 ZINC000096269677   -0.0600
34     C34     2.9394   -1.7787   -3.9485 C.2      1 ZINC000096269677    0.5500
35     O35     1.8380   -2.2314   -4.1789 O.2      1 ZINC000096269677   -0.4500
36     N36     4.1162   -2.2622   -4.3909 N.am     1 ZINC000096269677   -0.6500
37     C37     5.1996   -1.5039   -3.9418 C.ar     1 ZINC000096269677    0.1800
38     C38     6.5667   -1.6516   -4.1604 C.ar     1 ZINC000096269677   -0.1200
39     C39     7.4600   -0.7600   -3.6002 C.ar     1 ZINC000096269677    0.0200
40     Cl40    9.1627   -0.9528   -3.8785 Cl       1 ZINC000096269677   -0.0300
41     C41     7.0042    0.2868   -2.8184 C.ar     1 ZINC000096269677   -0.1200
42     C42     5.6469    0.4402   -2.5968 C.ar     1 ZINC000096269677   -0.0500
43     C43     4.7532   -0.4470   -3.1530 C.ar     1 ZINC000096269677   -0.1700
44     H44     1.5878   -0.2359    0.9116 H        1 ZINC000096269677    0.0600
45     H45     0.1378   -0.2087   -0.1205 H        1 ZINC000096269677    0.0600
46     H46     0.1274   -1.1259    1.4050 H        1 ZINC000096269677    0.1000
47     H47     2.2897   -2.8370    1.5275 H        1 ZINC000096269677    0.0800
48     H48     2.8712   -3.4589   -0.0356 H        1 ZINC000096269677    0.0700
49     H49     3.2783   -1.8015    0.4699 H        1 ZINC000096269677    0.0500
50     H50    -0.7382   -2.7747   -0.6372 H        1 ZINC000096269677    0.0600
51     H51     0.5257   -4.0272   -0.6821 H        1 ZINC000096269677    0.0700
52     H52    -0.0558   -3.4054    0.8810 H        1 ZINC000096269677    0.0700
53     H53     1.8017   -2.5939   -2.1957 H        1 ZINC000096269677    0.1300
54     H54     0.6826   -1.2140   -2.0876 H        1 ZINC000096269677    0.0900
55     H55     0.2588    2.9395   -3.8721 H        1 ZINC000096269677    0.4100
56     H56     1.0428    5.2024   -2.2011 H        1 ZINC000096269677    0.1000
57     H57     2.9263    5.0316   -3.8048 H        1 ZINC000096269677    0.0700
58     H58     1.7750    5.0740   -5.1616 H        1 ZINC000096269677    0.0800
59     H59     2.1456    7.2682   -3.0722 H        1 ZINC000096269677    0.0800
60     H60     2.7455    7.3180   -4.7473 H        1 ZINC000096269677    0.0800
61     H61     0.6053    8.5515   -4.5314 H        1 ZINC000096269677    0.0600
62     H62    -0.4828    7.3238   -6.2677 H        1 ZINC000096269677    0.3800
63     H63    -0.3126    7.2579   -2.6254 H        1 ZINC000096269677    0.0800
64     H64    -1.4640    7.3004   -3.9822 H        1 ZINC000096269677    0.0800
65     H65    -0.6832    5.0638   -4.7148 H        1 ZINC000096269677    0.0800
66     H66    -1.2831    5.0140   -3.0397 H        1 ZINC000096269677    0.0700
67     H67     0.1245   -0.4452   -3.7030 H        1 ZINC000096269677    0.1400
68     H68    -1.2565   -1.0057   -5.6623 H        1 ZINC000096269677    0.1500
69     H69    -0.4288   -0.5291   -7.9310 H        1 ZINC000096269677    0.1500
70     H70     4.2013   -3.0462   -4.9558 H        1 ZINC000096269677    0.4300
71     H71     6.9296   -2.4663   -4.7695 H        1 ZINC000096269677    0.1500
72     H72     7.7060    0.9822   -2.3820 H        1 ZINC000096269677    0.1500
73     H73     5.2885    1.2561   -1.9867 H        1 ZINC000096269677    0.1400
@<TRIPOS>BOND
1     1     2     1
2     1     44    1
3     1     45    1
4     1     46    1
5     2     3     1
6     2     4     1
7     2     5     1
8     3     47    1
9     3     48    1
10    3     49    1
11    4     50    1
12    4     51    1
13    4     52    1
14    5     6     1
15    5     53    1
16    5     54    1
17    6     7     1
18    6     33    1
19    6     8     1
20    8     9     1
21    8     10    1
22    8     11    1
23    11    12    1
24    11    13    1
25    11    23    1
26    13    14    2
27    13    15    am
28    15    16    1
29    15    55    1
30    16    22    1
31    16    17    1
32    16    56    1
33    17    18    1
34    17    57    1
35    17    58    1
36    18    19    1
37    18    59    1
38    18    60    1
39    19    20    1
40    19    21    1
41    19    61    1
42    20    62    1
43    21    22    1
44    21    63    1
45    21    64    1
46    22    65    1
47    22    66    1
48    23    24    1
49    23    25    1
50    23    33    1
51    25    31    ar
52    25    26    ar
53    26    27    ar
54    26    67    1
55    27    28    ar
56    27    68    1
57    28    29    ar
58    28    69    1
59    29    30    1
60    29    31    ar
61    31    32    1
62    33    43    1
63    33    34    1
64    34    35    2
65    34    36    am
66    36    37    1
67    36    70    1
68    37    43    ar
69    37    38    ar
70    38    39    ar
71    38    71    1
72    39    40    1
73    39    41    ar
74    41    42    ar
75    41    72    1
76    42    43    ar
77    42    73    1
@<TRIPOS>SUBSTRUCTURE
1   ZINC000096269677 1     RESIDUE    1   A     ZIN   1


@<TRIPOS>MOLECULE
O=C(NC(C)(C)C)[C@@H](N(C=O)CC1=CC=C(OCC2=CC=C(Cl)C=C2)C=C1)C3=C(C(O)=O)NC4=CC(Cl)=CC=C43
68    71    1     0     0
SMALL
USER_CHARGES
@<TRIPOS>ATOM
1      C1      0.9107    0.1015    1.9348 C.3      1 ZINC000098209627   -0.1700
2      C2      2.1898    0.9408    1.9149 C.3      1 ZINC000098209627    0.1700
3      C3      1.8714    2.3666    2.3696 C.3      1 ZINC000098209627   -0.1600
4      C4      3.2206    0.3220    2.8612 C.3      1 ZINC000098209627   -0.1500
5      N5      2.7324    0.9718    0.5545 N.am     1 ZINC000098209627   -0.7300
6      C6      1.9951    1.4781   -0.4538 C.2      1 ZINC000098209627    0.5100
7      O7      0.8463    1.8127   -0.2562 O.2      1 ZINC000098209627   -0.5100
8      C8      2.5983    1.6284   -1.8266 C.3      1 ZINC000098209627    0.2300
9      H9      3.6526    1.3537   -1.7923 H        1 ZINC000098209627    0.0900
10     C10     1.8756    0.7271   -2.7943 C.2      1 ZINC000098209627   -0.2000
11     C11     1.9154    0.8110   -4.1524 C.2      1 ZINC000098209627    0.0900
12     C12     2.6746    1.8011   -4.9213 C.2      1 ZINC000098209627    0.5300
13     O13     2.0999    2.5229   -5.7261 O.co2    1 ZINC000098209627   -0.6600
14     O14     3.8836    1.9065   -4.7588 O.co2    1 ZINC000098209627   -0.6400
15     N15     1.1247   -0.1885   -4.6903 N.pl3    1 ZINC000098209627   -0.5600
16     C16     0.5746   -0.9178   -3.6635 C.ar     1 ZINC000098209627    0.0900
17     C17    -0.2808   -2.0150   -3.6276 C.ar     1 ZINC000098209627   -0.1100
18     C18    -0.6688   -2.5418   -2.4145 C.ar     1 ZINC000098209627   -0.0300
19     Cl19   -1.7356   -3.9107   -2.3733 Cl       1 ZINC000098209627   -0.0800
20     C20    -0.2135   -1.9875   -1.2233 C.ar     1 ZINC000098209627   -0.1400
21     C21     0.6256   -0.9120   -1.2336 C.ar     1 ZINC000098209627   -0.0700
22     C22     1.0390   -0.3616   -2.4544 C.ar     1 ZINC000098209627   -0.0700
23     N23     2.4703    3.0199   -2.2665 N.am     1 ZINC000098209627   -0.6000
24     C24     1.7074    3.3211   -3.3360 C.2      1 ZINC000098209627    0.5100
25     O25     1.6779    4.4572   -3.7593 O.2      1 ZINC000098209627   -0.5400
26     C26     3.1714    4.0841   -1.5439 C.3      1 ZINC000098209627    0.1600
27     C27     4.5384    4.2839   -2.1462 C.ar     1 ZINC000098209627   -0.1300
28     C28     5.6152    3.5596   -1.6692 C.ar     1 ZINC000098209627   -0.0600
29     C29     6.8693    3.7410   -2.2195 C.ar     1 ZINC000098209627   -0.1500
30     C30     7.0475    4.6503   -3.2520 C.ar     1 ZINC000098209627    0.1300
31     O31     8.2801    4.8302   -3.7954 O.3      1 ZINC000098209627   -0.3100
32     C32     8.3893    5.7828   -4.8549 C.3      1 ZINC000098209627    0.1000
33     C33     9.8187    5.8461   -5.3282 C.ar     1 ZINC000098209627   -0.0800
34     C34    10.7017    6.7339   -4.7424 C.ar     1 ZINC000098209627   -0.0800
35     C35    12.0128    6.7924   -5.1760 C.ar     1 ZINC000098209627   -0.1200
36     C36    12.4413    5.9623   -6.1966 C.ar     1 ZINC000098209627   -0.0300
37     Cl37   14.0880    6.0348   -6.7413 Cl       1 ZINC000098209627   -0.0700
38     C38    11.5570    5.0740   -6.7824 C.ar     1 ZINC000098209627   -0.1100
39     C39    10.2477    5.0125   -6.3441 C.ar     1 ZINC000098209627   -0.0800
40     C40     5.9653    5.3755   -3.7291 C.ar     1 ZINC000098209627   -0.2000
41     C41     4.7124    5.1870   -3.1786 C.ar     1 ZINC000098209627   -0.0400
42     H42     0.1763    0.5424    1.2606 H        1 ZINC000098209627    0.0900
43     H43     1.1375   -0.9142    1.6109 H        1 ZINC000098209627    0.0600
44     H44     0.5069    0.0785    2.9470 H        1 ZINC000098209627    0.0600
45     H45     1.4676    2.3435    3.3818 H        1 ZINC000098209627    0.0600
46     H46     2.7826    2.9645    2.3554 H        1 ZINC000098209627    0.0500
47     H47     1.1370    2.8075    1.6954 H        1 ZINC000098209627    0.0800
48     H48     3.4474   -0.6938    2.5373 H        1 ZINC000098209627    0.0600
49     H49     4.1318    0.9199    2.8470 H        1 ZINC000098209627    0.0600
50     H50     2.8168    0.2989    3.8734 H        1 ZINC000098209627    0.0700
51     H51     3.6224    0.6280    0.3793 H        1 ZINC000098209627    0.4000
52     H52     0.9818   -0.3482   -5.6364 H        1 ZINC000098209627    0.4200
53     H53    -0.6399   -2.4521   -4.5476 H        1 ZINC000098209627    0.1300
54     H54    -0.5274   -2.4121   -0.2812 H        1 ZINC000098209627    0.1300
55     H55     0.9739   -0.4884   -0.3033 H        1 ZINC000098209627    0.1400
56     H56     1.1224    2.5506   -3.8162 H        1 ZINC000098209627    0.1400
57     H57     2.6022    5.0106   -1.6194 H        1 ZINC000098209627    0.0900
58     H58     3.2737    3.8048   -0.4953 H        1 ZINC000098209627    0.0700
59     H59     5.4760    2.8518   -0.8654 H        1 ZINC000098209627    0.1200
60     H60     7.7103    3.1755   -1.8461 H        1 ZINC000098209627    0.1200
61     H61     7.7458    5.4820   -5.6817 H        1 ZINC000098209627    0.0800
62     H62     8.0822    6.7644   -4.4940 H        1 ZINC000098209627    0.0700
63     H63    10.3670    7.3821   -3.9460 H        1 ZINC000098209627    0.1300
64     H64    12.7025    7.4862   -4.7186 H        1 ZINC000098209627    0.1400
65     H65    11.8909    4.4260   -7.5793 H        1 ZINC000098209627    0.1400
66     H66     9.5574    4.3189   -6.8011 H        1 ZINC000098209627    0.1400
67     H67     6.1016    6.0842   -4.5325 H        1 ZINC000098209627    0.1200
68     H68     3.8695    5.7509   -3.5499 H        1 ZINC000098209627    0.1300
@<TRIPOS>BOND
1     1     2     1
2     1     42    1
3     1     43    1
4     1     44    1
5     2     3     1
6     2     4     1
7     2     5     1
8     3     45    1
9     3     46    1
10    3     47    1
11    4     48    1
12    4     49    1
13    4     50    1
14    5     6     am
15    5     51    1
16    6     7     2
17    6     8     1
18    8     9     1
19    8     10    1
20    8     23    1
21    10    22    1
22    10    11    2
23    11    12    1
24    11    15    1
25    12    13    ar
26    12    14    ar
27    15    16    1
28    15    52    1
29    16    22    ar
30    16    17    ar
31    17    18    ar
32    17    53    1
33    18    19    1
34    18    20    ar
35    20    21    ar
36    20    54    1
37    21    22    ar
38    21    55    1
39    23    24    am
40    23    26    1
41    24    25    2
42    24    56    1
43    26    27    1
44    26    57    1
45    26    58    1
46    27    41    ar
47    27    28    ar
48    28    29    ar
49    28    59    1
50    29    30    ar
51    29    60    1
52    30    31    1
53    30    40    ar
54    31    32    1
55    32    33    1
56    32    61    1
57    32    62    1
58    33    39    ar
59    33    34    ar
60    34    35    ar
61    34    63    1
62    35    36    ar
63    35    64    1
64    36    37    1
65    36    38    ar
66    38    39    ar
67    38    65    1
68    39    66    1
69    40    41    ar
70    40    67    1
71    41    68    1
@<TRIPOS>SUBSTRUCTURE
1   ZINC000098209627 1     RESIDUE    1   A     ZIN   1


@<TRIPOS>MOLECULE
O=C(NCC1=CC=CC=C1)[C@@H](N[C@@H](CC(C)C)C(NO)=O)C2=C(C(NO)=O)NC3=C2C=CC(Cl)=C3
63    65    1     0     0
SMALL
USER_CHARGES
@<TRIPOS>ATOM
1      C1     -2.9449    3.2476    0.4995 C.3      1 ZINC000098208112   -0.1500
2      C2     -3.1237    2.4579    1.7978 C.3      1 ZINC000098208112   -0.1100
3      C3     -4.4987    1.7869    1.8013 C.3      1 ZINC000098208112   -0.1500
4      C4     -2.0341    1.3886    1.8985 C.3      1 ZINC000098208112   -0.1000
5      C5     -0.6697    2.0638    2.0519 C.3      1 ZINC000098208112    0.0900
6      H6     -0.5252    2.7791    1.2422 H        1 ZINC000098208112    0.1000
7      N7      0.3886    1.0462    2.0010 N.3      1 ZINC000098208112   -0.6000
8      C8      1.6542    1.6259    1.5317 C.3      1 ZINC000098208112    0.1500
9      H9      1.7614    2.6349    1.9298 H        1 ZINC000098208112    0.0700
10     C10     1.6552    1.6774    0.0256 C.2      1 ZINC000098208112    0.5100
11     O11     0.8361    1.0416   -0.6035 O.2      1 ZINC000098208112   -0.4700
12     N12     2.5664    2.4300   -0.6223 N.am     1 ZINC000098208112   -0.7300
13     C13     2.5674    2.4800   -2.0865 C.3      1 ZINC000098208112    0.1700
14     C14     3.6764    3.3853   -2.5574 C.ar     1 ZINC000098208112   -0.1100
15     C15     3.4378    4.7351   -2.7365 C.ar     1 ZINC000098208112   -0.1000
16     C16     4.4550    5.5654   -3.1685 C.ar     1 ZINC000098208112   -0.1200
17     C17     5.7110    5.0461   -3.4209 C.ar     1 ZINC000098208112   -0.1100
18     C18     5.9499    3.6965   -3.2408 C.ar     1 ZINC000098208112   -0.1200
19     C19     4.9338    2.8669   -2.8048 C.ar     1 ZINC000098208112   -0.1000
20     C20     2.8033    0.7741    2.0060 C.2      1 ZINC000098208112   -0.0900
21     C21     2.8811   -0.5803    1.9307 C.2      1 ZINC000098208112    0.0700
22     C22     1.8489   -1.4634    1.3681 C.2      1 ZINC000098208112    0.5600
23     O23     0.8650   -0.9863    0.8350 O.2      1 ZINC000098208112   -0.4000
24     N24     1.9928   -2.8013    1.4432 N.am     1 ZINC000098208112   -0.6000
25     O25     1.0539   -3.6510    0.8094 O.3      1 ZINC000098208112   -0.3000
26     N26     4.0850   -0.9956    2.4672 N.pl3    1 ZINC000098208112   -0.5700
27     C27     4.7854    0.1092    2.8907 C.ar     1 ZINC000098208112    0.1300
28     C28     6.0285    0.2748    3.4939 C.ar     1 ZINC000098208112   -0.1200
29     C29     6.4735    1.5405    3.8098 C.ar     1 ZINC000098208112    0.0000
30     Cl30    8.0247    1.7438    4.5622 Cl       1 ZINC000098208112   -0.0600
31     C31     5.6918    2.6559    3.5311 C.ar     1 ZINC000098208112   -0.1300
32     C32     4.4696    2.5176    2.9406 C.ar     1 ZINC000098208112   -0.0500
33     C33     3.9980    1.2421    2.6044 C.ar     1 ZINC000098208112   -0.1000
34     C34    -0.6112    2.7836    3.3745 C.2      1 ZINC000098208112    0.4900
35     O35    -0.1795    2.2158    4.3554 O.2      1 ZINC000098208112   -0.5200
36     N36    -1.0387    4.0584    3.4674 N.am     1 ZINC000098208112   -0.5900
37     O37    -0.8965    4.7658    4.6858 O.3      1 ZINC000098208112   -0.3200
38     H38    -2.9169    2.5581   -0.3442 H        1 ZINC000098208112    0.0700
39     H39    -3.7790    3.9384    0.3767 H        1 ZINC000098208112    0.0600
40     H40    -2.0115    3.8088    0.5413 H        1 ZINC000098208112    0.0500
41     H41    -3.0479    3.1353    2.6484 H        1 ZINC000098208112    0.0700
42     H42    -4.5746    1.1095    0.9506 H        1 ZINC000098208112    0.0600
43     H43    -4.6261    1.2243    2.7262 H        1 ZINC000098208112    0.0600
44     H44    -5.2750    2.5487    1.7295 H        1 ZINC000098208112    0.0600
45     H45    -2.2255    0.7553    2.7647 H        1 ZINC000098208112    0.0700
46     H46    -2.0384    0.7792    0.9948 H        1 ZINC000098208112    0.1000
47     H47     0.5057    0.6011    2.8989 H        1 ZINC000098208112    0.3600
48     H48     3.2216    2.9385   -0.1192 H        1 ZINC000098208112    0.4000
49     H49     2.7234    1.4772   -2.4842 H        1 ZINC000098208112    0.0700
50     H50     1.6101    2.8653   -2.4375 H        1 ZINC000098208112    0.0800
51     H51     2.4565    5.1408   -2.5394 H        1 ZINC000098208112    0.1200
52     H52     4.2684    6.6198   -3.3092 H        1 ZINC000098208112    0.1200
53     H53     6.5056    5.6948   -3.7590 H        1 ZINC000098208112    0.1200
54     H54     6.9311    3.2908   -3.4383 H        1 ZINC000098208112    0.1200
55     H55     5.1204    1.8125   -2.6641 H        1 ZINC000098208112    0.1200
56     H56     2.7394   -3.1822    1.9313 H        1 ZINC000098208112    0.4000
57     H57     1.2401   -4.5936    0.9184 H        1 ZINC000098208112    0.3900
58     H58     4.3864   -1.9151    2.5339 H        1 ZINC000098208112    0.4200
59     H59     6.6426   -0.5859    3.7141 H        1 ZINC000098208112    0.1400
60     H60     6.0552    3.6408    3.7847 H        1 ZINC000098208112    0.1400
61     H61     3.8691    3.3899    2.7286 H        1 ZINC000098208112    0.1300
62     H62    -1.4437    4.4913    2.6997 H        1 ZINC000098208112    0.4100
63     H63    -1.1610    5.6945    4.6345 H        1 ZINC000098208112    0.3900
@<TRIPOS>BOND
1     1     2     1
2     1     38    1
3     1     39    1
4     1     40    1
5     2     3     1
6     2     4     1
7     2     41    1
8     3     42    1
9     3     43    1
10    3     44    1
11    4     5     1
12    4     45    1
13    4     46    1
14    5     6     1
15    5     7     1
16    5     34    1
17    7     8     1
18    7     47    1
19    8     9     1
20    8     10    1
21    8     20    1
22    10    11    2
23    10    12    am
24    12    13    1
25    12    48    1
26    13    14    1
27    13    49    1
28    13    50    1
29    14    19    ar
30    14    15    ar
31    15    16    ar
32    15    51    1
33    16    17    ar
34    16    52    1
35    17    18    ar
36    17    53    1
37    18    19    ar
38    18    54    1
39    19    55    1
40    20    33    1
41    20    21    2
42    21    22    1
43    21    26    1
44    22    23    2
45    22    24    am
46    24    25    1
47    24    56    1
48    25    57    1
49    26    27    1
50    26    58    1
51    27    33    ar
52    27    28    ar
53    28    29    ar
54    28    59    1
55    29    30    1
56    29    31    ar
57    31    32    ar
58    31    60    1
59    32    33    ar
60    32    61    1
61    34    35    2
62    34    36    am
63    36    37    1
64    36    62    1
65    37    63    1
@<TRIPOS>SUBSTRUCTURE
1   ZINC000098208112 1     RESIDUE    1   A     ZIN   1


@<TRIPOS>MOLECULE
O=C1[C@@H](CC(O)=O)C[C@H](C2=CC(Cl)=CC=C2)[C@@H](C3=CC=C(Cl)C=C3)N1[C@@H](CC)C(OC(C)(C)C)=O
65    67    1     0     0
SMALL
USER_CHARGES
@<TRIPOS>ATOM
1      C1     -0.1506    0.1172    0.0506 C.3      1 ZINC000095574639   -0.1700
2      C2      0.8260   -1.0106   -0.2891 C.3      1 ZINC000095574639   -0.1100
3      C3      1.2438   -0.8987   -1.7567 C.3      1 ZINC000095574639    0.1600
4      H4      2.0707   -0.1943   -1.8463 H        1 ZINC000095574639    0.1100
5      C5      1.6791   -2.2510   -2.2596 C.2      1 ZINC000095574639    0.4600
6      O6      1.1010   -2.7652   -3.1876 O.2      1 ZINC000095574639   -0.4900
7      O7      2.7091   -2.8842   -1.6765 O.3      1 ZINC000095574639   -0.3500
8      C8      3.0733   -4.1833   -2.2132 C.3      1 ZINC000095574639    0.1200
9      C9      3.4615   -4.0362   -3.6858 C.3      1 ZINC000095574639   -0.1800
10     C10     4.2592   -4.7457   -1.4268 C.3      1 ZINC000095574639   -0.1400
11     C11     1.8830   -5.1369   -2.0924 C.3      1 ZINC000095574639   -0.1800
12     N12     0.1093   -0.4237   -2.5525 N.am     1 ZINC000095574639   -0.5900
13     C13    -1.0936   -0.9388   -2.2955 C.2      1 ZINC000095574639    0.5200
14     O14    -1.1795   -1.8007   -1.4466 O.2      1 ZINC000095574639   -0.4600
15     C15    -2.3477   -0.5083   -3.0006 C.3      1 ZINC000095574639   -0.0700
16     H16    -2.9478   -1.3860   -3.2405 H        1 ZINC000095574639    0.1100
17     C17    -3.1500    0.4219   -2.0884 C.3      1 ZINC000095574639   -0.1800
18     C18    -3.6156   -0.3425   -0.8760 C.2      1 ZINC000095574639    0.4800
19     O19    -3.3322   -1.5220   -0.7530 O.co2    1 ZINC000095574639   -0.6600
20     O20    -4.2758    0.2184   -0.0181 O.co2    1 ZINC000095574639   -0.7100
21     C21    -1.9911    0.2323   -4.2919 C.3      1 ZINC000095574639   -0.1100
22     C22    -0.9312    1.2915   -3.9663 C.3      1 ZINC000095574639   -0.0600
23     H23    -1.2744    1.9092   -3.1364 H        1 ZINC000095574639    0.1000
24     C24    -0.6932    2.1574   -5.1765 C.ar     1 ZINC000095574639   -0.0500
25     C25    -0.2503    1.5894   -6.3562 C.ar     1 ZINC000095574639   -0.1100
26     C26    -0.0322    2.3831   -7.4671 C.ar     1 ZINC000095574639   -0.1000
27     C27    -0.2564    3.7450   -7.3984 C.ar     1 ZINC000095574639   -0.1200
28     C28    -0.6997    4.3142   -6.2177 C.ar     1 ZINC000095574639   -0.0300
29     Cl29   -0.9822    6.0248   -6.1308 Cl       1 ZINC000095574639   -0.0700
30     C30    -0.9233    3.5187   -5.1082 C.ar     1 ZINC000095574639   -0.1000
31     C31     0.3650    0.5864   -3.5717 C.3      1 ZINC000095574639    0.2000
32     H32     0.7939    0.1030   -4.4495 H        1 ZINC000095574639    0.0800
33     C33     1.3411    1.6017   -3.0355 C.ar     1 ZINC000095574639   -0.0900
34     C34     0.9869    2.4029   -1.9661 C.ar     1 ZINC000095574639   -0.0900
35     C35     1.8817    3.3343   -1.4739 C.ar     1 ZINC000095574639   -0.1100
36     C36     3.1320    3.4646   -2.0517 C.ar     1 ZINC000095574639   -0.0300
37     Cl37    4.2565    4.6339   -1.4337 Cl       1 ZINC000095574639   -0.0700
38     C38     3.4858    2.6625   -3.1220 C.ar     1 ZINC000095574639   -0.1100
39     C39     2.5923    1.7276   -3.6097 C.ar     1 ZINC000095574639   -0.0900
40     H40     0.1666    1.0342   -0.4459 H        1 ZINC000095574639    0.0500
41     H41    -1.1502   -0.1531   -0.2895 H        1 ZINC000095574639    0.0900
42     H42    -0.1637    0.2738    1.1292 H        1 ZINC000095574639    0.0500
43     H43     1.7078   -0.9315    0.3468 H        1 ZINC000095574639    0.0600
44     H44     0.3422   -1.9729   -0.1214 H        1 ZINC000095574639    0.0900
45     H45     4.3096   -3.3568   -3.7718 H        1 ZINC000095574639    0.0600
46     H46     3.7349   -5.0114   -4.0886 H        1 ZINC000095574639    0.0700
47     H47     2.6167   -3.6355   -4.2460 H        1 ZINC000095574639    0.0800
48     H48     3.9826   -4.8505   -0.3777 H        1 ZINC000095574639    0.0700
49     H49     4.5326   -5.7209   -1.8297 H        1 ZINC000095574639    0.0800
50     H50     5.1072   -4.0663   -1.5129 H        1 ZINC000095574639    0.0600
51     H51     1.0381   -4.7362   -2.6526 H        1 ZINC000095574639    0.0900
52     H52     2.1564   -6.1121   -2.4952 H        1 ZINC000095574639    0.0700
53     H53     1.6064   -5.2417   -1.0432 H        1 ZINC000095574639    0.0600
54     H54    -2.5201    1.2539   -1.7735 H        1 ZINC000095574639    0.0500
55     H55    -4.0145    0.8054   -2.6302 H        1 ZINC000095574639    0.0700
56     H56    -1.5931   -0.4730   -5.0215 H        1 ZINC000095574639    0.0700
57     H57    -2.8809    0.7155   -4.6955 H        1 ZINC000095574639    0.0800
58     H58    -0.0743    0.5252   -6.4102 H        1 ZINC000095574639    0.1300
59     H59     0.3139    1.9387   -8.3886 H        1 ZINC000095574639    0.1300
60     H60    -0.0853    4.3649   -8.2660 H        1 ZINC000095574639    0.1300
61     H61    -1.2693    3.9624   -4.1864 H        1 ZINC000095574639    0.1300
62     H62     0.0107    2.3013   -1.5153 H        1 ZINC000095574639    0.1400
63     H63     1.6047    3.9604   -0.6386 H        1 ZINC000095574639    0.1400
64     H64     4.4616    2.7640   -3.5736 H        1 ZINC000095574639    0.1300
65     H65     2.8686    1.1011   -4.4449 H        1 ZINC000095574639    0.1300
@<TRIPOS>BOND
1     1     2     1
2     1     40    1
3     1     41    1
4     1     42    1
5     2     3     1
6     2     43    1
7     2     44    1
8     3     4     1
9     3     5     1
10    3     12    1
11    5     6     2
12    5     7     1
13    7     8     1
14    8     9     1
15    8     10    1
16    8     11    1
17    9     45    1
18    9     46    1
19    9     47    1
20    10    48    1
21    10    49    1
22    10    50    1
23    11    51    1
24    11    52    1
25    11    53    1
26    12    31    1
27    12    13    am
28    13    14    2
29    13    15    1
30    15    16    1
31    15    17    1
32    15    21    1
33    17    18    1
34    17    54    1
35    17    55    1
36    18    19    ar
37    18    20    ar
38    21    22    1
39    21    56    1
40    21    57    1
41    22    23    1
42    22    24    1
43    22    31    1
44    24    30    ar
45    24    25    ar
46    25    26    ar
47    25    58    1
48    26    27    ar
49    26    59    1
50    27    28    ar
51    27    60    1
52    28    29    1
53    28    30    ar
54    30    61    1
55    31    32    1
56    31    33    1
57    33    39    ar
58    33    34    ar
59    34    35    ar
60    34    62    1
61    35    36    ar
62    35    63    1
63    36    37    1
64    36    38    ar
65    38    39    ar
66    38    64    1
67    39    65    1
@<TRIPOS>SUBSTRUCTURE
1   ZINC000095574639 1     RESIDUE    1   A     ZIN   1


@<TRIPOS>MOLECULE
O=C1[C@@H](CC(O)=O)C[C@H](C2=CC(Cl)=CC=C2)[C@@H](C3=CC=C(Cl)C=C3)N1[C@@H](CC)C(OC(C)(C)C)=O
65    67    1     0     0
SMALL
USER_CHARGES
@<TRIPOS>ATOM
1      C1     -0.1506    0.1172    0.0506 C.3      1 ZINC000095574639   -0.1700
2      C2      0.8260   -1.0106   -0.2891 C.3      1 ZINC000095574639   -0.1100
3      C3      1.2438   -0.8987   -1.7567 C.3      1 ZINC000095574639    0.1600
4      H4      2.0707   -0.1943   -1.8463 H        1 ZINC000095574639    0.1100
5      C5      1.6791   -2.2510   -2.2596 C.2      1 ZINC000095574639    0.4600
6      O6      1.1010   -2.7652   -3.1876 O.2      1 ZINC000095574639   -0.4900
7      O7      2.7091   -2.8842   -1.6765 O.3      1 ZINC000095574639   -0.3500
8      C8      3.0733   -4.1833   -2.2132 C.3      1 ZINC000095574639    0.1200
9      C9      3.4615   -4.0362   -3.6858 C.3      1 ZINC000095574639   -0.1800
10     C10     4.2592   -4.7457   -1.4268 C.3      1 ZINC000095574639   -0.1400
11     C11     1.8830   -5.1369   -2.0924 C.3      1 ZINC000095574639   -0.1800
12     N12     0.1093   -0.4237   -2.5525 N.am     1 ZINC000095574639   -0.5900
13     C13    -1.0936   -0.9388   -2.2955 C.2      1 ZINC000095574639    0.5200
14     O14    -1.1795   -1.8007   -1.4466 O.2      1 ZINC000095574639   -0.4600
15     C15    -2.3477   -0.5083   -3.0006 C.3      1 ZINC000095574639   -0.0700
16     H16    -2.9478   -1.3860   -3.2405 H        1 ZINC000095574639    0.1100
17     C17    -3.1500    0.4219   -2.0884 C.3      1 ZINC000095574639   -0.1800
18     C18    -3.6156   -0.3425   -0.8760 C.2      1 ZINC000095574639    0.4800
19     O19    -3.3322   -1.5220   -0.7530 O.co2    1 ZINC000095574639   -0.6600
20     O20    -4.2758    0.2184   -0.0181 O.co2    1 ZINC000095574639   -0.7100
21     C21    -1.9911    0.2323   -4.2919 C.3      1 ZINC000095574639   -0.1100
22     C22    -0.9312    1.2915   -3.9663 C.3      1 ZINC000095574639   -0.0600
23     H23    -1.2744    1.9092   -3.1364 H        1 ZINC000095574639    0.1000
24     C24    -0.6932    2.1574   -5.1765 C.ar     1 ZINC000095574639   -0.0500
25     C25    -0.2503    1.5894   -6.3562 C.ar     1 ZINC000095574639   -0.1100
26     C26    -0.0322    2.3831   -7.4671 C.ar     1 ZINC000095574639   -0.1000
27     C27    -0.2564    3.7450   -7.3984 C.ar     1 ZINC000095574639   -0.1200
28     C28    -0.6997    4.3142   -6.2177 C.ar     1 ZINC000095574639   -0.0300
29     Cl29   -0.9822    6.0248   -6.1308 Cl       1 ZINC000095574639   -0.0700
30     C30    -0.9233    3.5187   -5.1082 C.ar     1 ZINC000095574639   -0.1000
31     C31     0.3650    0.5864   -3.5717 C.3      1 ZINC000095574639    0.2000
32     H32     0.7939    0.1030   -4.4495 H        1 ZINC000095574639    0.0800
33     C33     1.3411    1.6017   -3.0355 C.ar     1 ZINC000095574639   -0.0900
34     C34     0.9869    2.4029   -1.9661 C.ar     1 ZINC000095574639   -0.0900
35     C35     1.8817    3.3343   -1.4739 C.ar     1 ZINC000095574639   -0.1100
36     C36     3.1320    3.4646   -2.0517 C.ar     1 ZINC000095574639   -0.0300
37     Cl37    4.2565    4.6339   -1.4337 Cl       1 ZINC000095574639   -0.0700
38     C38     3.4858    2.6625   -3.1220 C.ar     1 ZINC000095574639   -0.1100
39     C39     2.5923    1.7276   -3.6097 C.ar     1 ZINC000095574639   -0.0900
40     H40     0.1666    1.0342   -0.4459 H        1 ZINC000095574639    0.0500
41     H41    -1.1502   -0.1531   -0.2895 H        1 ZINC000095574639    0.0900
42     H42    -0.1637    0.2738    1.1292 H        1 ZINC000095574639    0.0500
43     H43     1.7078   -0.9315    0.3468 H        1 ZINC000095574639    0.0600
44     H44     0.3422   -1.9729   -0.1214 H        1 ZINC000095574639    0.0900
45     H45     4.3096   -3.3568   -3.7718 H        1 ZINC000095574639    0.0600
46     H46     3.7349   -5.0114   -4.0886 H        1 ZINC000095574639    0.0700
47     H47     2.6167   -3.6355   -4.2460 H        1 ZINC000095574639    0.0800
48     H48     3.9826   -4.8505   -0.3777 H        1 ZINC000095574639    0.0700
49     H49     4.5326   -5.7209   -1.8297 H        1 ZINC000095574639    0.0800
50     H50     5.1072   -4.0663   -1.5129 H        1 ZINC000095574639    0.0600
51     H51     1.0381   -4.7362   -2.6526 H        1 ZINC000095574639    0.0900
52     H52     2.1564   -6.1121   -2.4952 H        1 ZINC000095574639    0.0700
53     H53     1.6064   -5.2417   -1.0432 H        1 ZINC000095574639    0.0600
54     H54    -2.5201    1.2539   -1.7735 H        1 ZINC000095574639    0.0500
55     H55    -4.0145    0.8054   -2.6302 H        1 ZINC000095574639    0.0700
56     H56    -1.5931   -0.4730   -5.0215 H        1 ZINC000095574639    0.0700
57     H57    -2.8809    0.7155   -4.6955 H        1 ZINC000095574639    0.0800
58     H58    -0.0743    0.5252   -6.4102 H        1 ZINC000095574639    0.1300
59     H59     0.3139    1.9387   -8.3886 H        1 ZINC000095574639    0.1300
60     H60    -0.0853    4.3649   -8.2660 H        1 ZINC000095574639    0.1300
61     H61    -1.2693    3.9624   -4.1864 H        1 ZINC000095574639    0.1300
62     H62     0.0107    2.3013   -1.5153 H        1 ZINC000095574639    0.1400
63     H63     1.6047    3.9604   -0.6386 H        1 ZINC000095574639    0.1400
64     H64     4.4616    2.7640   -3.5736 H        1 ZINC000095574639    0.1300
65     H65     2.8686    1.1011   -4.4449 H        1 ZINC000095574639    0.1300
@<TRIPOS>BOND
1     1     2     1
2     1     40    1
3     1     41    1
4     1     42    1
5     2     3     1
6     2     43    1
7     2     44    1
8     3     4     1
9     3     5     1
10    3     12    1
11    5     6     2
12    5     7     1
13    7     8     1
14    8     9     1
15    8     10    1
16    8     11    1
17    9     45    1
18    9     46    1
19    9     47    1
20    10    48    1
21    10    49    1
22    10    50    1
23    11    51    1
24    11    52    1
25    11    53    1
26    12    31    1
27    12    13    am
28    13    14    2
29    13    15    1
30    15    16    1
31    15    17    1
32    15    21    1
33    17    18    1
34    17    54    1
35    17    55    1
36    18    19    ar
37    18    20    ar
38    21    22    1
39    21    56    1
40    21    57    1
41    22    23    1
42    22    24    1
43    22    31    1
44    24    30    ar
45    24    25    ar
46    25    26    ar
47    25    58    1
48    26    27    ar
49    26    59    1
50    27    28    ar
51    27    60    1
52    28    29    1
53    28    30    ar
54    30    61    1
55    31    32    1
56    31    33    1
57    33    39    ar
58    33    34    ar
59    34    35    ar
60    34    62    1
61    35    36    ar
62    35    63    1
63    36    37    1
64    36    38    ar
65    38    39    ar
66    38    64    1
67    39    65    1
@<TRIPOS>SUBSTRUCTURE
1   ZINC000095574639 1     RESIDUE    1   A     ZIN   1


@<TRIPOS>MOLECULE
CC1=CC(Cl)=CC=C1C(C(N(C(C)C)C(C2=CC(F)=CC=C2OC)=N3)=C3C4=O)N4C5=CC(Cl)=CC=C5C
63    67    1     0     0
SMALL
USER_CHARGES
@<TRIPOS>ATOM
1      C1     -2.6460    0.2090    1.4422 C.3      1 ZINC000169705359    0.0200
2      O2     -1.8374   -0.8108    0.8519 O.3      1 ZINC000169705359   -0.2900
3      C3     -0.5335   -0.8599    1.2298 C.ar     1 ZINC000169705359    0.1700
4      C4     -0.0429    0.0491    2.1527 C.ar     1 ZINC000169705359   -0.1800
5      C5      1.2839   -0.0006    2.5369 C.ar     1 ZINC000169705359   -0.0900
6      C6      2.1315   -0.9582    2.0031 C.ar     1 ZINC000169705359    0.0600
7      F7      3.4267   -0.9991    2.3850 F        1 ZINC000169705359   -0.1300
8      C8      1.6560   -1.8716    1.0819 C.ar     1 ZINC000169705359   -0.1000
9      C9      0.3173   -1.8329    0.6920 C.ar     1 ZINC000169705359   -0.0300
10     C10    -0.1978   -2.8073   -0.2932 C.2      1 ZINC000169705359    0.2700
11     N11    -0.9159   -2.5175   -1.3515 N.2      1 ZINC000169705359   -0.3900
12     C12    -1.2037   -3.6583   -2.0176 C.2      1 ZINC000169705359   -0.0500
13     C13    -0.6323   -4.6907   -1.3299 C.2      1 ZINC000169705359   -0.0100
14     C14    -0.9611   -5.9540   -2.0833 C.3      1 ZINC000169705359    0.2700
15     H15    -0.0449   -6.4427   -2.4148 H        1 ZINC000169705359    0.1200
16     C16    -1.7591   -6.8868   -1.2091 C.ar     1 ZINC000169705359   -0.1000
17     C17    -3.0266   -6.5270   -0.7913 C.ar     1 ZINC000169705359   -0.0800
18     C18    -3.7593   -7.3824    0.0102 C.ar     1 ZINC000169705359   -0.1100
19     C19    -3.2237   -8.5986    0.3941 C.ar     1 ZINC000169705359   -0.0200
20     Cl20   -4.1434   -9.6736    1.4002 Cl       1 ZINC000169705359   -0.0600
21     C21    -1.9548   -8.9583   -0.0244 C.ar     1 ZINC000169705359   -0.1100
22     C22    -1.2254   -8.1046   -0.8300 C.ar     1 ZINC000169705359   -0.0500
23     C23     0.1564   -8.4963   -1.2864 C.3      1 ZINC000169705359   -0.1300
24     N24    -1.7601   -5.5379   -3.2427 N.am     1 ZINC000169705359   -0.5600
25     C25    -2.2874   -6.3840   -4.2235 C.ar     1 ZINC000169705359    0.1600
26     C26    -3.5259   -6.9822   -4.0335 C.ar     1 ZINC000169705359   -0.0900
27     C27    -4.0443   -7.8177   -5.0053 C.ar     1 ZINC000169705359   -0.0300
28     Cl28   -5.5926   -8.5665   -4.7695 Cl       1 ZINC000169705359   -0.0600
29     C29    -3.3301   -8.0572   -6.1661 C.ar     1 ZINC000169705359   -0.0900
30     C30    -2.0964   -7.4624   -6.3573 C.ar     1 ZINC000169705359   -0.1000
31     C31    -1.5756   -6.6231   -5.3923 C.ar     1 ZINC000169705359   -0.0600
32     C32    -0.2310   -5.9756   -5.6020 C.3      1 ZINC000169705359   -0.1200
33     C33    -1.8963   -4.2007   -3.1965 C.2      1 ZINC000169705359    0.6000
34     O34    -2.5053   -3.5353   -4.0125 O.2      1 ZINC000169705359   -0.4900
35     N35     0.0007   -4.1605   -0.2554 N.pl3    1 ZINC000169705359   -0.4000
36     C36     0.7514   -4.8999    0.7624 C.3      1 ZINC000169705359    0.1100
37     C37    -0.1597   -5.9452    1.4090 C.3      1 ZINC000169705359   -0.1800
38     C38     1.9452   -5.5985    0.1085 C.3      1 ZINC000169705359   -0.1700
39     H39    -2.2329    1.1875    1.1971 H        1 ZINC000169705359    0.0600
40     H40    -3.6623    0.1363    1.0551 H        1 ZINC000169705359    0.1100
41     H41    -2.6593    0.0809    2.5246 H        1 ZINC000169705359    0.0600
42     H42    -0.6981    0.7980    2.5726 H        1 ZINC000169705359    0.1500
43     H43     1.6620    0.7107    3.2563 H        1 ZINC000169705359    0.1500
44     H44     2.3188   -2.6169    0.6675 H        1 ZINC000169705359    0.1400
45     H45    -3.4445   -5.5772   -1.0909 H        1 ZINC000169705359    0.1300
46     H46    -4.7495   -7.1010    0.3369 H        1 ZINC000169705359    0.1400
47     H47    -1.5360   -9.9076    0.2753 H        1 ZINC000169705359    0.1400
48     H48     0.0969   -8.9527   -2.2745 H        1 ZINC000169705359    0.0800
49     H49     0.7886   -7.6096   -1.3331 H        1 ZINC000169705359    0.0700
50     H50     0.5831   -9.2100   -0.5816 H        1 ZINC000169705359    0.0800
51     H51    -4.0833   -6.7953   -3.1276 H        1 ZINC000169705359    0.1400
52     H52    -3.7368   -8.7102   -6.9241 H        1 ZINC000169705359    0.1400
53     H53    -1.5414   -7.6512   -7.2643 H        1 ZINC000169705359    0.1400
54     H54    -0.3636   -5.0171   -6.1039 H        1 ZINC000169705359    0.0800
55     H55     0.2504   -5.8169   -4.6371 H        1 ZINC000169705359    0.0600
56     H56     0.3927   -6.6244   -6.2169 H        1 ZINC000169705359    0.0800
57     H57     1.1084   -4.2077    1.5249 H        1 ZINC000169705359    0.1100
58     H58     0.3586   -6.4100    2.2477 H        1 ZINC000169705359    0.0800
59     H59    -1.0696   -5.4629    1.7663 H        1 ZINC000169705359    0.0700
60     H60    -0.4173   -6.7074    0.6736 H        1 ZINC000169705359    0.0800
61     H61     2.6482   -4.8502   -0.2575 H        1 ZINC000169705359    0.0700
62     H62     2.4406   -6.2344    0.8422 H        1 ZINC000169705359    0.0900
63     H63     1.5973   -6.2086   -0.7251 H        1 ZINC000169705359    0.0700
@<TRIPOS>BOND
1     1     2     1
2     1     39    1
3     1     40    1
4     1     41    1
5     2     3     1
6     3     9     ar
7     3     4     ar
8     4     5     ar
9     4     42    1
10    5     6     ar
11    5     43    1
12    6     7     1
13    6     8     ar
14    8     9     ar
15    8     44    1
16    9     10    1
17    10    35    1
18    10    11    2
19    11    12    1
20    12    33    1
21    12    13    2
22    13    14    1
23    13    35    1
24    14    15    1
25    14    16    1
26    14    24    1
27    16    22    ar
28    16    17    ar
29    17    18    ar
30    17    45    1
31    18    19    ar
32    18    46    1
33    19    20    1
34    19    21    ar
35    21    22    ar
36    21    47    1
37    22    23    1
38    23    48    1
39    23    49    1
40    23    50    1
41    24    25    1
42    24    33    am
43    25    31    ar
44    25    26    ar
45    26    27    ar
46    26    51    1
47    27    28    1
48    27    29    ar
49    29    30    ar
50    29    52    1
51    30    31    ar
52    30    53    1
53    31    32    1
54    32    54    1
55    32    55    1
56    32    56    1
57    33    34    2
58    35    36    1
59    36    37    1
60    36    38    1
61    36    57    1
62    37    58    1
63    37    59    1
64    37    60    1
65    38    61    1
66    38    62    1
67    38    63    1
@<TRIPOS>SUBSTRUCTURE
1   ZINC000169705359 1     RESIDUE    1   A     ZIN   1


@<TRIPOS>MOLECULE
CC1=CC(Cl)=CC=C1C(C2=C(C(C)C)N(CC3=CC=CC=N3)N=C2C4=O)N4C5=CC=CC(Cl)=C5F
58    62    1     0     0
SMALL
USER_CHARGES
@<TRIPOS>ATOM
1      C1     -1.6540    1.4135    1.2771 C.3      1 ZINC000206099800   -0.1300
2      C2     -1.0304    0.0794    0.9571 C.ar     1 ZINC000206099800   -0.0500
3      C3     -1.3713   -0.5807   -0.2081 C.ar     1 ZINC000206099800   -0.1100
4      C4     -0.7986   -1.8057   -0.5019 C.ar     1 ZINC000206099800   -0.0200
5      Cl5    -1.2259   -2.6353   -1.9657 Cl       1 ZINC000206099800   -0.0700
6      C6      0.1148   -2.3687    0.3712 C.ar     1 ZINC000206099800   -0.1100
7      C7      0.4549   -1.7074    1.5365 C.ar     1 ZINC000206099800   -0.0700
8      C8     -0.1132   -0.4812    1.8266 C.ar     1 ZINC000206099800   -0.1000
9      C9      0.2581    0.2392    3.0971 C.3      1 ZINC000206099800    0.2700
10     H10    -0.4154    1.0806    3.2603 H        1 ZINC000206099800    0.1100
11     C11     1.6804    0.7236    3.0195 C.2      1 ZINC000206099800   -0.2200
12     C12     2.5871    1.4926    2.3911 C.2      1 ZINC000206099800    0.1000
13     C13     2.3386    2.3723    1.1930 C.3      1 ZINC000206099800   -0.0200
14     C14     1.8870    1.5104    0.0123 C.3      1 ZINC000206099800   -0.1600
15     C15     1.2480    3.3922    1.5265 C.3      1 ZINC000206099800   -0.1400
16     N16     3.7638    1.3286    3.0372 N.pl3    1 ZINC000206099800   -0.2700
17     C17     5.0190    1.9910    2.6744 C.3      1 ZINC000206099800    0.1800
18     C18     5.1919    3.2325    3.5110 C.ar     1 ZINC000206099800    0.0900
19     C19     6.3247    3.3798    4.2885 C.ar     1 ZINC000206099800   -0.1500
20     C20     6.4744    4.5261    5.0543 C.ar     1 ZINC000206099800   -0.0700
21     C21     5.4744    5.4852    5.0087 C.ar     1 ZINC000206099800   -0.1600
22     C22     4.3693    5.2685    4.2073 C.ar     1 ZINC000206099800    0.1000
23     N23     4.2629    4.1683    3.4884 N.ar     1 ZINC000206099800   -0.4600
24     N24     3.6213    0.5076    4.0166 N.2      1 ZINC000206099800   -0.2100
25     C25     2.3743    0.0880    4.0783 C.2      1 ZINC000206099800   -0.0400
26     C26     1.4159   -0.7688    4.7971 C.2      1 ZINC000206099800    0.6200
27     O27     1.6883   -1.4551    5.7631 O.2      1 ZINC000206099800   -0.4900
28     N28     0.1962   -0.6839    4.2362 N.am     1 ZINC000206099800   -0.5600
29     C29    -0.9464   -1.3672    4.6687 C.ar     1 ZINC000206099800    0.1300
30     C30    -1.8797   -0.7242    5.4701 C.ar     1 ZINC000206099800   -0.0800
31     C31    -3.0070   -1.4005    5.8956 C.ar     1 ZINC000206099800   -0.1100
32     C32    -3.2074   -2.7171    5.5250 C.ar     1 ZINC000206099800   -0.0700
33     C33    -2.2798   -3.3633    4.7264 C.ar     1 ZINC000206099800   -0.0700
34     Cl34   -2.5355   -5.0168    4.2635 Cl       1 ZINC000206099800   -0.0400
35     C35    -1.1517   -2.6900    4.2918 C.ar     1 ZINC000206099800    0.1300
36     F36    -0.2458   -3.3200    3.5123 F        1 ZINC000206099800   -0.1100
37     H37    -0.9903    2.2131    0.9480 H        1 ZINC000206099800    0.0900
38     H38    -2.6107    1.5003    0.7621 H        1 ZINC000206099800    0.0800
39     H39    -1.8119    1.4921    2.3528 H        1 ZINC000206099800    0.0700
40     H40    -2.0847   -0.1408   -0.8892 H        1 ZINC000206099800    0.1400
41     H41     0.5618   -3.3249    0.1426 H        1 ZINC000206099800    0.1300
42     H42     1.1680   -2.1469    2.2182 H        1 ZINC000206099800    0.1300
43     H43     3.2577    2.8960    0.9299 H        1 ZINC000206099800    0.0800
44     H44     1.0013    0.9417    0.2955 H        1 ZINC000206099800    0.0700
45     H45     1.6507    2.1520   -0.8366 H        1 ZINC000206099800    0.0700
46     H46     2.6872    0.8234   -0.2631 H        1 ZINC000206099800    0.0500
47     H47     1.6057    4.0648    2.3061 H        1 ZINC000206099800    0.0700
48     H48     1.0037    3.9680    0.6338 H        1 ZINC000206099800    0.0600
49     H49     0.3576    2.8704    1.8773 H        1 ZINC000206099800    0.0600
50     H50     5.8531    1.3127    2.8542 H        1 ZINC000206099800    0.1200
51     H51     4.9939    2.2643    1.6195 H        1 ZINC000206099800    0.1200
52     H52     7.0838    2.6116    4.2999 H        1 ZINC000206099800    0.1400
53     H53     7.3490    4.6682    5.6717 H        1 ZINC000206099800    0.1400
54     H54     5.5576    6.3901    5.5924 H        1 ZINC000206099800    0.1400
55     H55     3.5857    6.0106    4.1665 H        1 ZINC000206099800    0.1600
56     H56    -1.7246    0.3042    5.7612 H        1 ZINC000206099800    0.1500
57     H57    -3.7328   -0.8996    6.5190 H        1 ZINC000206099800    0.1500
58     H58    -4.0895   -3.2427    5.8597 H        1 ZINC000206099800    0.1500
@<TRIPOS>BOND
1     1     2     1
2     1     37    1
3     1     38    1
4     1     39    1
5     2     8     ar
6     2     3     ar
7     3     4     ar
8     3     40    1
9     4     5     1
10    4     6     ar
11    6     7     ar
12    6     41    1
13    7     8     ar
14    7     42    1
15    8     9     1
16    9     10    1
17    9     28    1
18    9     11    1
19    11    25    1
20    11    12    2
21    12    13    1
22    12    16    1
23    13    14    1
24    13    15    1
25    13    43    1
26    14    44    1
27    14    45    1
28    14    46    1
29    15    47    1
30    15    48    1
31    15    49    1
32    16    17    1
33    16    24    1
34    17    18    1
35    17    50    1
36    17    51    1
37    18    23    ar
38    18    19    ar
39    19    20    ar
40    19    52    1
41    20    21    ar
42    20    53    1
43    21    22    ar
44    21    54    1
45    22    23    ar
46    22    55    1
47    24    25    2
48    25    26    1
49    26    27    2
50    26    28    am
51    28    29    1
52    29    35    ar
53    29    30    ar
54    30    31    ar
55    30    56    1
56    31    32    ar
57    31    57    1
58    32    33    ar
59    32    58    1
60    33    34    1
61    33    35    ar
62    35    36    1
@<TRIPOS>SUBSTRUCTURE
1   ZINC000206099800 1     RESIDUE    1   A     ZIN   1


@<TRIPOS>MOLECULE
CC1=CC(Cl)=CC=C1C(C(N(C(C)C)C(C2=CC(F)=CC=C2OC)=N3)=C3C4=O)N4C5=CC(Cl)=CC=C5C
63    67    1     0     0
SMALL
USER_CHARGES
@<TRIPOS>ATOM
1      C1     -2.6460    0.2090    1.4422 C.3      1 ZINC000169705359    0.0200
2      O2     -1.8374   -0.8108    0.8519 O.3      1 ZINC000169705359   -0.2900
3      C3     -0.5335   -0.8599    1.2298 C.ar     1 ZINC000169705359    0.1700
4      C4     -0.0429    0.0491    2.1527 C.ar     1 ZINC000169705359   -0.1800
5      C5      1.2839   -0.0006    2.5369 C.ar     1 ZINC000169705359   -0.0900
6      C6      2.1315   -0.9582    2.0031 C.ar     1 ZINC000169705359    0.0600
7      F7      3.4267   -0.9991    2.3850 F        1 ZINC000169705359   -0.1300
8      C8      1.6560   -1.8716    1.0819 C.ar     1 ZINC000169705359   -0.1000
9      C9      0.3173   -1.8329    0.6920 C.ar     1 ZINC000169705359   -0.0300
10     C10    -0.1978   -2.8073   -0.2932 C.2      1 ZINC000169705359    0.2700
11     N11    -0.9159   -2.5175   -1.3515 N.2      1 ZINC000169705359   -0.3900
12     C12    -1.2037   -3.6583   -2.0176 C.2      1 ZINC000169705359   -0.0500
13     C13    -0.6323   -4.6907   -1.3299 C.2      1 ZINC000169705359   -0.0100
14     C14    -0.9611   -5.9540   -2.0833 C.3      1 ZINC000169705359    0.2700
15     H15    -0.0449   -6.4427   -2.4148 H        1 ZINC000169705359    0.1200
16     C16    -1.7591   -6.8868   -1.2091 C.ar     1 ZINC000169705359   -0.1000
17     C17    -3.0266   -6.5270   -0.7913 C.ar     1 ZINC000169705359   -0.0800
18     C18    -3.7593   -7.3824    0.0102 C.ar     1 ZINC000169705359   -0.1100
19     C19    -3.2237   -8.5986    0.3941 C.ar     1 ZINC000169705359   -0.0200
20     Cl20   -4.1434   -9.6736    1.4002 Cl       1 ZINC000169705359   -0.0600
21     C21    -1.9548   -8.9583   -0.0244 C.ar     1 ZINC000169705359   -0.1100
22     C22    -1.2254   -8.1046   -0.8300 C.ar     1 ZINC000169705359   -0.0500
23     C23     0.1564   -8.4963   -1.2864 C.3      1 ZINC000169705359   -0.1300
24     N24    -1.7601   -5.5379   -3.2427 N.am     1 ZINC000169705359   -0.5600
25     C25    -2.2874   -6.3840   -4.2235 C.ar     1 ZINC000169705359    0.1600
26     C26    -3.5259   -6.9822   -4.0335 C.ar     1 ZINC000169705359   -0.0900
27     C27    -4.0443   -7.8177   -5.0053 C.ar     1 ZINC000169705359   -0.0300
28     Cl28   -5.5926   -8.5665   -4.7695 Cl       1 ZINC000169705359   -0.0600
29     C29    -3.3301   -8.0572   -6.1661 C.ar     1 ZINC000169705359   -0.0900
30     C30    -2.0964   -7.4624   -6.3573 C.ar     1 ZINC000169705359   -0.1000
31     C31    -1.5756   -6.6231   -5.3923 C.ar     1 ZINC000169705359   -0.0600
32     C32    -0.2310   -5.9756   -5.6020 C.3      1 ZINC000169705359   -0.1200
33     C33    -1.8963   -4.2007   -3.1965 C.2      1 ZINC000169705359    0.6000
34     O34    -2.5053   -3.5353   -4.0125 O.2      1 ZINC000169705359   -0.4900
35     N35     0.0007   -4.1605   -0.2554 N.pl3    1 ZINC000169705359   -0.4000
36     C36     0.7514   -4.8999    0.7624 C.3      1 ZINC000169705359    0.1100
37     C37    -0.1597   -5.9452    1.4090 C.3      1 ZINC000169705359   -0.1800
38     C38     1.9452   -5.5985    0.1085 C.3      1 ZINC000169705359   -0.1700
39     H39    -2.2329    1.1875    1.1971 H        1 ZINC000169705359    0.0600
40     H40    -3.6623    0.1363    1.0551 H        1 ZINC000169705359    0.1100
41     H41    -2.6593    0.0809    2.5246 H        1 ZINC000169705359    0.0600
42     H42    -0.6981    0.7980    2.5726 H        1 ZINC000169705359    0.1500
43     H43     1.6620    0.7107    3.2563 H        1 ZINC000169705359    0.1500
44     H44     2.3188   -2.6169    0.6675 H        1 ZINC000169705359    0.1400
45     H45    -3.4445   -5.5772   -1.0909 H        1 ZINC000169705359    0.1300
46     H46    -4.7495   -7.1010    0.3369 H        1 ZINC000169705359    0.1400
47     H47    -1.5360   -9.9076    0.2753 H        1 ZINC000169705359    0.1400
48     H48     0.0969   -8.9527   -2.2745 H        1 ZINC000169705359    0.0800
49     H49     0.7886   -7.6096   -1.3331 H        1 ZINC000169705359    0.0700
50     H50     0.5831   -9.2100   -0.5816 H        1 ZINC000169705359    0.0800
51     H51    -4.0833   -6.7953   -3.1276 H        1 ZINC000169705359    0.1400
52     H52    -3.7368   -8.7102   -6.9241 H        1 ZINC000169705359    0.1400
53     H53    -1.5414   -7.6512   -7.2643 H        1 ZINC000169705359    0.1400
54     H54    -0.3636   -5.0171   -6.1039 H        1 ZINC000169705359    0.0800
55     H55     0.2504   -5.8169   -4.6371 H        1 ZINC000169705359    0.0600
56     H56     0.3927   -6.6244   -6.2169 H        1 ZINC000169705359    0.0800
57     H57     1.1084   -4.2077    1.5249 H        1 ZINC000169705359    0.1100
58     H58     0.3586   -6.4100    2.2477 H        1 ZINC000169705359    0.0800
59     H59    -1.0696   -5.4629    1.7663 H        1 ZINC000169705359    0.0700
60     H60    -0.4173   -6.7074    0.6736 H        1 ZINC000169705359    0.0800
61     H61     2.6482   -4.8502   -0.2575 H        1 ZINC000169705359    0.0700
62     H62     2.4406   -6.2344    0.8422 H        1 ZINC000169705359    0.0900
63     H63     1.5973   -6.2086   -0.7251 H        1 ZINC000169705359    0.0700
@<TRIPOS>BOND
1     1     2     1
2     1     39    1
3     1     40    1
4     1     41    1
5     2     3     1
6     3     9     ar
7     3     4     ar
8     4     5     ar
9     4     42    1
10    5     6     ar
11    5     43    1
12    6     7     1
13    6     8     ar
14    8     9     ar
15    8     44    1
16    9     10    1
17    10    35    1
18    10    11    2
19    11    12    1
20    12    33    1
21    12    13    2
22    13    14    1
23    13    35    1
24    14    15    1
25    14    16    1
26    14    24    1
27    16    22    ar
28    16    17    ar
29    17    18    ar
30    17    45    1
31    18    19    ar
32    18    46    1
33    19    20    1
34    19    21    ar
35    21    22    ar
36    21    47    1
37    22    23    1
38    23    48    1
39    23    49    1
40    23    50    1
41    24    25    1
42    24    33    am
43    25    31    ar
44    25    26    ar
45    26    27    ar
46    26    51    1
47    27    28    1
48    27    29    ar
49    29    30    ar
50    29    52    1
51    30    31    ar
52    30    53    1
53    31    32    1
54    32    54    1
55    32    55    1
56    32    56    1
57    33    34    2
58    35    36    1
59    36    37    1
60    36    38    1
61    36    57    1
62    37    58    1
63    37    59    1
64    37    60    1
65    38    61    1
66    38    62    1
67    38    63    1
@<TRIPOS>SUBSTRUCTURE
1   ZINC000169705359 1     RESIDUE    1   A     ZIN   1


@<TRIPOS>MOLECULE
CC1=CC(Cl)=CC=C1C(C2=C(C(C)C)N(CC3=CC=CC=N3)N=C2C4=O)N4C5=CC=CC(Cl)=C5F
58    62    1     0     0
SMALL
USER_CHARGES
@<TRIPOS>ATOM
1      C1     -1.6540    1.4135    1.2771 C.3      1 ZINC000206099800   -0.1300
2      C2     -1.0304    0.0794    0.9571 C.ar     1 ZINC000206099800   -0.0500
3      C3     -1.3713   -0.5807   -0.2081 C.ar     1 ZINC000206099800   -0.1100
4      C4     -0.7986   -1.8057   -0.5019 C.ar     1 ZINC000206099800   -0.0200
5      Cl5    -1.2259   -2.6353   -1.9657 Cl       1 ZINC000206099800   -0.0700
6      C6      0.1148   -2.3687    0.3712 C.ar     1 ZINC000206099800   -0.1100
7      C7      0.4549   -1.7074    1.5365 C.ar     1 ZINC000206099800   -0.0700
8      C8     -0.1132   -0.4812    1.8266 C.ar     1 ZINC000206099800   -0.1000
9      C9      0.2581    0.2392    3.0971 C.3      1 ZINC000206099800    0.2700
10     H10    -0.4154    1.0806    3.2603 H        1 ZINC000206099800    0.1100
11     C11     1.6804    0.7236    3.0195 C.2      1 ZINC000206099800   -0.2200
12     C12     2.5871    1.4926    2.3911 C.2      1 ZINC000206099800    0.1000
13     C13     2.3386    2.3723    1.1930 C.3      1 ZINC000206099800   -0.0200
14     C14     1.8870    1.5104    0.0123 C.3      1 ZINC000206099800   -0.1600
15     C15     1.2480    3.3922    1.5265 C.3      1 ZINC000206099800   -0.1400
16     N16     3.7638    1.3286    3.0372 N.pl3    1 ZINC000206099800   -0.2700
17     C17     5.0190    1.9910    2.6744 C.3      1 ZINC000206099800    0.1800
18     C18     5.1919    3.2325    3.5110 C.ar     1 ZINC000206099800    0.0900
19     C19     6.3247    3.3798    4.2885 C.ar     1 ZINC000206099800   -0.1500
20     C20     6.4744    4.5261    5.0543 C.ar     1 ZINC000206099800   -0.0700
21     C21     5.4744    5.4852    5.0087 C.ar     1 ZINC000206099800   -0.1600
22     C22     4.3693    5.2685    4.2073 C.ar     1 ZINC000206099800    0.1000
23     N23     4.2629    4.1683    3.4884 N.ar     1 ZINC000206099800   -0.4600
24     N24     3.6213    0.5076    4.0166 N.2      1 ZINC000206099800   -0.2100
25     C25     2.3743    0.0880    4.0783 C.2      1 ZINC000206099800   -0.0400
26     C26     1.4159   -0.7688    4.7971 C.2      1 ZINC000206099800    0.6200
27     O27     1.6883   -1.4551    5.7631 O.2      1 ZINC000206099800   -0.4900
28     N28     0.1962   -0.6839    4.2362 N.am     1 ZINC000206099800   -0.5600
29     C29    -0.9464   -1.3672    4.6687 C.ar     1 ZINC000206099800    0.1300
30     C30    -1.8797   -0.7242    5.4701 C.ar     1 ZINC000206099800   -0.0800
31     C31    -3.0070   -1.4005    5.8956 C.ar     1 ZINC000206099800   -0.1100
32     C32    -3.2074   -2.7171    5.5250 C.ar     1 ZINC000206099800   -0.0700
33     C33    -2.2798   -3.3633    4.7264 C.ar     1 ZINC000206099800   -0.0700
34     Cl34   -2.5355   -5.0168    4.2635 Cl       1 ZINC000206099800   -0.0400
35     C35    -1.1517   -2.6900    4.2918 C.ar     1 ZINC000206099800    0.1300
36     F36    -0.2458   -3.3200    3.5123 F        1 ZINC000206099800   -0.1100
37     H37    -0.9903    2.2131    0.9480 H        1 ZINC000206099800    0.0900
38     H38    -2.6107    1.5003    0.7621 H        1 ZINC000206099800    0.0800
39     H39    -1.8119    1.4921    2.3528 H        1 ZINC000206099800    0.0700
40     H40    -2.0847   -0.1408   -0.8892 H        1 ZINC000206099800    0.1400
41     H41     0.5618   -3.3249    0.1426 H        1 ZINC000206099800    0.1300
42     H42     1.1680   -2.1469    2.2182 H        1 ZINC000206099800    0.1300
43     H43     3.2577    2.8960    0.9299 H        1 ZINC000206099800    0.0800
44     H44     1.0013    0.9417    0.2955 H        1 ZINC000206099800    0.0700
45     H45     1.6507    2.1520   -0.8366 H        1 ZINC000206099800    0.0700
46     H46     2.6872    0.8234   -0.2631 H        1 ZINC000206099800    0.0500
47     H47     1.6057    4.0648    2.3061 H        1 ZINC000206099800    0.0700
48     H48     1.0037    3.9680    0.6338 H        1 ZINC000206099800    0.0600
49     H49     0.3576    2.8704    1.8773 H        1 ZINC000206099800    0.0600
50     H50     5.8531    1.3127    2.8542 H        1 ZINC000206099800    0.1200
51     H51     4.9939    2.2643    1.6195 H        1 ZINC000206099800    0.1200
52     H52     7.0838    2.6116    4.2999 H        1 ZINC000206099800    0.1400
53     H53     7.3490    4.6682    5.6717 H        1 ZINC000206099800    0.1400
54     H54     5.5576    6.3901    5.5924 H        1 ZINC000206099800    0.1400
55     H55     3.5857    6.0106    4.1665 H        1 ZINC000206099800    0.1600
56     H56    -1.7246    0.3042    5.7612 H        1 ZINC000206099800    0.1500
57     H57    -3.7328   -0.8996    6.5190 H        1 ZINC000206099800    0.1500
58     H58    -4.0895   -3.2427    5.8597 H        1 ZINC000206099800    0.1500
@<TRIPOS>BOND
1     1     2     1
2     1     37    1
3     1     38    1
4     1     39    1
5     2     8     ar
6     2     3     ar
7     3     4     ar
8     3     40    1
9     4     5     1
10    4     6     ar
11    6     7     ar
12    6     41    1
13    7     8     ar
14    7     42    1
15    8     9     1
16    9     10    1
17    9     28    1
18    9     11    1
19    11    25    1
20    11    12    2
21    12    13    1
22    12    16    1
23    13    14    1
24    13    15    1
25    13    43    1
26    14    44    1
27    14    45    1
28    14    46    1
29    15    47    1
30    15    48    1
31    15    49    1
32    16    17    1
33    16    24    1
34    17    18    1
35    17    50    1
36    17    51    1
37    18    23    ar
38    18    19    ar
39    19    20    ar
40    19    52    1
41    20    21    ar
42    20    53    1
43    21    22    ar
44    21    54    1
45    22    23    ar
46    22    55    1
47    24    25    2
48    25    26    1
49    26    27    2
50    26    28    am
51    28    29    1
52    29    35    ar
53    29    30    ar
54    30    31    ar
55    30    56    1
56    31    32    ar
57    31    57    1
58    32    33    ar
59    32    58    1
60    33    34    1
61    33    35    ar
62    35    36    1
@<TRIPOS>SUBSTRUCTURE
1   ZINC000206099800 1     RESIDUE    1   A     ZIN   1


@<TRIPOS>MOLECULE
CN(CCCN(C)C)[C@@H]1CN(CC1)C(C(NC2=C3C=CC(Cl)=C2)=C3C4=C(N=CN4CC5=CC=C(Cl)C=C5)C6=CC=CC=C6)=O
83    88    1     0     0
SMALL
USER_CHARGES
@<TRIPOS>ATOM
1      C1     -0.0178    1.4648    0.0101 C.3      1 ZINC000043199963    0.0200
2      N2      0.0021   -0.0041    0.0020 N.3      1 ZINC000043199963   -0.5300
3      C3      0.7062   -0.5275    1.1802 C.3      1 ZINC000043199963    0.0500
4      C4      2.1851   -0.1430    1.1032 C.3      1 ZINC000043199963   -0.1500
5      C5      2.9184   -0.6882    2.3303 C.3      1 ZINC000043199963   -0.0100
6      N6      4.3383   -0.3190    2.2563 N.4      1 ZINC000043199963   -0.3900
7      H7      4.4207    0.6810    2.1497 H        1 ZINC000043199963    0.4300
8      C8      5.0180   -0.7376    3.4895 C.3      1 ZINC000043199963   -0.0500
9      C9      4.9586   -0.9870    1.1043 C.3      1 ZINC000043199963   -0.0500
10     C10    -1.3597   -0.5486   -0.0825 C.3      1 ZINC000043199963    0.0700
11     H11    -1.9360   -0.2935    0.8068 H        1 ZINC000043199963    0.0700
12     C12    -2.0757   -0.0586   -1.3688 C.3      1 ZINC000043199963   -0.1200
13     C13    -3.1007   -1.1794   -1.6421 C.3      1 ZINC000043199963    0.0800
14     N14    -2.6153   -2.3898   -0.9631 N.am     1 ZINC000043199963   -0.6200
15     C15    -3.2397   -3.5841   -0.9449 C.2      1 ZINC000043199963    0.6000
16     O16    -2.7428   -4.5218   -0.3479 O.2      1 ZINC000043199963   -0.4900
17     C17    -4.5144   -3.7537   -1.6423 C.2      1 ZINC000043199963    0.0400
18     C18    -5.2567   -4.9259   -1.6941 C.2      1 ZINC000043199963    0.0000
19     C19    -4.9169   -6.2116   -1.0688 C.2      1 ZINC000043199963    0.0600
20     C20    -4.1762   -7.2422   -1.6298 C.2      1 ZINC000043199963    0.0700
21     C21    -3.5740   -7.2544   -2.9824 C.ar     1 ZINC000043199963    0.0000
22     C22    -4.2256   -6.6277   -4.0450 C.ar     1 ZINC000043199963   -0.1100
23     C23    -3.6592   -6.6427   -5.3030 C.ar     1 ZINC000043199963   -0.1200
24     C24    -2.4480   -7.2778   -5.5120 C.ar     1 ZINC000043199963   -0.1200
25     C25    -1.7971   -7.9016   -4.4625 C.ar     1 ZINC000043199963   -0.1200
26     C26    -2.3499   -7.8878   -3.1984 C.ar     1 ZINC000043199963   -0.0900
27     N27    -4.1067   -8.2278   -0.7175 N.2      1 ZINC000043199963   -0.4700
28     C28    -4.7511   -7.8737    0.3598 C.2      1 ZINC000043199963    0.2000
29     N29    -5.2641   -6.6355    0.1953 N.pl3    1 ZINC000043199963   -0.4400
30     C30    -6.0527   -5.8854    1.1760 C.3      1 ZINC000043199963    0.1500
31     C31    -7.5205   -6.0954    0.9068 C.ar     1 ZINC000043199963   -0.1200
32     C32    -8.1945   -5.2449    0.0504 C.ar     1 ZINC000043199963   -0.0800
33     C33    -9.5407   -5.4370   -0.1969 C.ar     1 ZINC000043199963   -0.1100
34     C34   -10.2137   -6.4808    0.4129 C.ar     1 ZINC000043199963   -0.0200
35     Cl35  -11.9044   -6.7230    0.1023 Cl       1 ZINC000043199963   -0.0600
36     C36    -9.5386   -7.3316    1.2699 C.ar     1 ZINC000043199963   -0.1100
37     C37    -8.1911   -7.1419    1.5120 C.ar     1 ZINC000043199963   -0.0800
38     C38    -6.4504   -4.6256   -2.4980 C.ar     1 ZINC000043199963   -0.1000
39     C39    -7.5530   -5.3814   -2.9000 C.ar     1 ZINC000043199963   -0.0400
40     C40    -8.5282   -4.8072   -3.6653 C.ar     1 ZINC000043199963   -0.1300
41     C41    -8.4309   -3.4749   -4.0472 C.ar     1 ZINC000043199963    0.0100
42     Cl42   -9.6819   -2.7659   -5.0198 Cl       1 ZINC000043199963   -0.0500
43     C43    -7.3509   -2.7106   -3.6609 C.ar     1 ZINC000043199963   -0.1300
44     C44    -6.3450   -3.2763   -2.8808 C.ar     1 ZINC000043199963    0.1300
45     N45    -5.1793   -2.7717   -2.3521 N.pl3    1 ZINC000043199963   -0.5800
46     C46    -1.3320   -2.0813   -0.3055 C.3      1 ZINC000043199963    0.1200
47     H47     1.0047    1.8421    0.0024 H        1 ZINC000043199963    0.0700
48     H48    -0.5450    1.8259   -0.8730 H        1 ZINC000043199963    0.0800
49     H49    -0.5280    1.8163    0.9069 H        1 ZINC000043199963    0.0300
50     H50     0.2673   -0.1040    2.0837 H        1 ZINC000043199963    0.0500
51     H51     0.6139   -1.6133    1.2060 H        1 ZINC000043199963    0.0900
52     H52     2.6240   -0.5665    0.1998 H        1 ZINC000043199963    0.1000
53     H53     2.2773    0.9428    1.0774 H        1 ZINC000043199963    0.0900
54     H54     2.4795   -0.2647    3.2337 H        1 ZINC000043199963    0.1300
55     H55     2.8262   -1.7739    2.3561 H        1 ZINC000043199963    0.1300
56     H56     4.9290   -1.8178    3.6046 H        1 ZINC000043199963    0.1200
57     H57     6.0716   -0.4637    3.4345 H        1 ZINC000043199963    0.1300
58     H58     4.5578   -0.2419    4.3442 H        1 ZINC000043199963    0.1200
59     H59     4.8695   -2.0672    1.2195 H        1 ZINC000043199963    0.1200
60     H60     4.4542   -0.6764    0.1893 H        1 ZINC000043199963    0.1300
61     H61     6.0121   -0.7131    1.0494 H        1 ZINC000043199963    0.1200
62     H62    -2.5808    0.8909   -1.1911 H        1 ZINC000043199963    0.0900
63     H63    -1.3693    0.0277   -2.1943 H        1 ZINC000043199963    0.1000
64     H64    -4.0749   -0.8962   -1.2436 H        1 ZINC000043199963    0.0700
65     H65    -3.1749   -1.3605   -2.7144 H        1 ZINC000043199963    0.0800
66     H66    -5.1714   -6.1322   -3.8832 H        1 ZINC000043199963    0.1200
67     H67    -4.1627   -6.1579   -6.1264 H        1 ZINC000043199963    0.1200
68     H68    -2.0089   -7.2871   -6.4987 H        1 ZINC000043199963    0.1200
69     H69    -0.8521   -8.3960   -4.6321 H        1 ZINC000043199963    0.1200
70     H70    -1.8409   -8.3750   -2.3799 H        1 ZINC000043199963    0.1200
71     H71    -4.8547   -8.4770    1.2496 H        1 ZINC000043199963    0.2100
72     H72    -5.8135   -6.2367    2.1797 H        1 ZINC000043199963    0.1100
73     H73    -5.8170   -4.8242    1.0967 H        1 ZINC000043199963    0.0900
74     H74    -7.6691   -4.4300   -0.4253 H        1 ZINC000043199963    0.1300
75     H75   -10.0672   -4.7723   -0.8657 H        1 ZINC000043199963    0.1400
76     H76   -10.0635   -8.1464    1.7464 H        1 ZINC000043199963    0.1400
77     H77    -7.6640   -7.8062    2.1807 H        1 ZINC000043199963    0.1300
78     H78    -7.6348   -6.4177   -2.6069 H        1 ZINC000043199963    0.1300
79     H79    -9.3807   -5.3932   -3.9759 H        1 ZINC000043199963    0.1400
80     H80    -7.2844   -1.6758   -3.9629 H        1 ZINC000043199963    0.1400
81     H81    -4.8684   -1.8595   -2.4626 H        1 ZINC000043199963    0.4200
82     H82    -0.4987   -2.3547   -0.9528 H        1 ZINC000043199963    0.0800
83     H83    -1.2594   -2.6033    0.6486 H        1 ZINC000043199963    0.0800
@<TRIPOS>BOND
1     1     2     1
2     1     47    1
3     1     48    1
4     1     49    1
5     2     3     1
6     2     10    1
7     3     4     1
8     3     50    1
9     3     51    1
10    4     5     1
11    4     52    1
12    4     53    1
13    5     6     1
14    5     54    1
15    5     55    1
16    6     7     1
17    6     8     1
18    6     9     1
19    8     56    1
20    8     57    1
21    8     58    1
22    9     59    1
23    9     60    1
24    9     61    1
25    10    11    1
26    10    46    1
27    10    12    1
28    12    13    1
29    12    62    1
30    12    63    1
31    13    14    1
32    13    64    1
33    13    65    1
34    14    15    am
35    14    46    1
36    15    16    2
37    15    17    1
38    17    45    1
39    17    18    2
40    18    19    1
41    18    38    1
42    19    29    1
43    19    20    2
44    20    21    1
45    20    27    1
46    21    26    ar
47    21    22    ar
48    22    23    ar
49    22    66    1
50    23    24    ar
51    23    67    1
52    24    25    ar
53    24    68    1
54    25    26    ar
55    25    69    1
56    26    70    1
57    27    28    2
58    28    29    1
59    28    71    1
60    29    30    1
61    30    31    1
62    30    72    1
63    30    73    1
64    31    37    ar
65    31    32    ar
66    32    33    ar
67    32    74    1
68    33    34    ar
69    33    75    1
70    34    35    1
71    34    36    ar
72    36    37    ar
73    36    76    1
74    37    77    1
75    38    44    ar
76    38    39    ar
77    39    40    ar
78    39    78    1
79    40    41    ar
80    40    79    1
81    41    42    1
82    41    43    ar
83    43    44    ar
84    43    80    1
85    44    45    1
86    45    81    1
87    46    82    1
88    46    83    1
@<TRIPOS>SUBSTRUCTURE
1   ZINC000043199963 1     RESIDUE    1   A     ZIN   1


@<TRIPOS>MOLECULE
O=C(N(C1=CC=CC=C1)N=C/2C)C2=C/C3=CC(Cl)=C(OCC(OC)=O)C(OCC)=C3
51    53    1     0     0
SMALL
USER_CHARGES
@<TRIPOS>ATOM
1      C1      2.8938    1.0217    0.9179 C.3      1 ZINC000001145764   -0.1500
2      C2      2.2426   -0.3536    0.7592 C.3      1 ZINC000001145764    0.0500
3      O3      2.1079   -0.6594   -0.6302 O.3      1 ZINC000001145764   -0.3000
4      C4      1.5431   -1.8552   -0.9472 C.ar     1 ZINC000001145764    0.1400
5      C5      1.1254   -2.7069    0.0539 C.ar     1 ZINC000001145764   -0.1600
6      C6      0.5428   -3.9403   -0.2769 C.ar     1 ZINC000001145764   -0.0400
7      C7      0.0971   -4.8481    0.7793 C.2      1 ZINC000001145764    0.0800
8      C8      0.4530   -6.1849    0.7385 C.2      1 ZINC000001145764   -0.2300
9      C9     -0.1134   -7.2893    1.5314 C.2      1 ZINC000001145764    0.5300
10     O10    -0.9991   -7.2149    2.3651 O.2      1 ZINC000001145764   -0.4800
11     N11     0.5479   -8.3997    1.1463 N.am     1 ZINC000001145764   -0.4100
12     C12     0.3205   -9.6851    1.6537 C.ar     1 ZINC000001145764    0.1700
13     C13    -0.6515   -9.8881    2.6245 C.ar     1 ZINC000001145764   -0.1500
14     C14    -0.8733  -11.1570    3.1229 C.ar     1 ZINC000001145764   -0.0900
15     C15    -0.1283  -12.2245    2.6565 C.ar     1 ZINC000001145764   -0.1400
16     C16     0.8404  -12.0257    1.6898 C.ar     1 ZINC000001145764   -0.1000
17     C17     1.0627  -10.7603    1.1829 C.ar     1 ZINC000001145764   -0.1300
18     N18     1.4906   -8.0820    0.1691 N.2      1 ZINC000001145764   -0.2300
19     C19     1.4752   -6.8149   -0.1106 C.2      1 ZINC000001145764    0.1400
20     C20     2.3534   -6.1142   -1.1150 C.3      1 ZINC000001145764   -0.0900
21     C21     0.3892   -4.2989   -1.6246 C.ar     1 ZINC000001145764   -0.1000
22     C22     0.8098   -3.4408   -2.6162 C.ar     1 ZINC000001145764   -0.0200
23     Cl23    0.6190   -3.8848   -4.2836 Cl       1 ZINC000001145764   -0.0300
24     C24     1.3815   -2.2169   -2.2856 C.ar     1 ZINC000001145764    0.0900
25     O25     1.7936   -1.3756   -3.2680 O.3      1 ZINC000001145764   -0.2900
26     C26     0.8390   -0.4307   -3.7557 C.3      1 ZINC000001145764    0.0700
27     C27     1.4711    0.4111   -4.8341 C.2      1 ZINC000001145764    0.4600
28     O28     2.6211    0.2213   -5.1523 O.2      1 ZINC000001145764   -0.4800
29     O29     0.7565    1.3717   -5.4411 O.3      1 ZINC000001145764   -0.3600
30     C30     1.4299    2.1433   -6.4704 C.3      1 ZINC000001145764    0.0400
31     H31     3.8785    1.0136    0.4506 H        1 ZINC000001145764    0.0700
32     H32     2.2703    1.7764    0.4386 H        1 ZINC000001145764    0.0700
33     H33     2.9965    1.2550    1.9777 H        1 ZINC000001145764    0.0800
34     H34     2.8661   -1.1083    1.2386 H        1 ZINC000001145764    0.0700
35     H35     1.2579   -0.3455    1.2266 H        1 ZINC000001145764    0.0700
36     H36     1.2465   -2.4256    1.0896 H        1 ZINC000001145764    0.1500
37     H37    -0.5098   -4.4754    1.5912 H        1 ZINC000001145764    0.1600
38     H38    -1.2332   -9.0547    2.9897 H        1 ZINC000001145764    0.1500
39     H39    -1.6291  -11.3155    3.8779 H        1 ZINC000001145764    0.1300
40     H40    -0.3031  -13.2157    3.0483 H        1 ZINC000001145764    0.1300
41     H41     1.4208  -12.8614    1.3278 H        1 ZINC000001145764    0.1300
42     H42     1.8194  -10.6057    0.4280 H        1 ZINC000001145764    0.1300
43     H43     3.0869   -6.8175   -1.5093 H        1 ZINC000001145764    0.0900
44     H44     1.7395   -5.7336   -1.9314 H        1 ZINC000001145764    0.1000
45     H45     2.8689   -5.2848   -0.6308 H        1 ZINC000001145764    0.0900
46     H46    -0.0582   -5.2470   -1.8841 H        1 ZINC000001145764    0.1500
47     H47    -0.0204   -0.9611   -4.1658 H        1 ZINC000001145764    0.1000
48     H48     0.5129    0.2117   -2.9377 H        1 ZINC000001145764    0.1000
49     H49     2.2935    2.6493   -6.0387 H        1 ZINC000001145764    0.0700
50     H50     1.7601    1.4765   -7.2668 H        1 ZINC000001145764    0.0700
51     H51     0.7416    2.8835   -6.8783 H        1 ZINC000001145764    0.1100
@<TRIPOS>BOND
1     1     2     1
2     1     31    1
3     1     32    1
4     1     33    1
5     2     3     1
6     2     34    1
7     2     35    1
8     3     4     1
9     4     24    ar
10    4     5     ar
11    5     6     ar
12    5     36    1
13    6     7     1
14    6     21    ar
15    7     8     2
16    7     37    1
17    8     19    1
18    8     9     1
19    9     10    2
20    9     11    am
21    11    12    1
22    11    18    1
23    12    17    ar
24    12    13    ar
25    13    14    ar
26    13    38    1
27    14    15    ar
28    14    39    1
29    15    16    ar
30    15    40    1
31    16    17    ar
32    16    41    1
33    17    42    1
34    18    19    2
35    19    20    1
36    20    43    1
37    20    44    1
38    20    45    1
39    21    22    ar
40    21    46    1
41    22    23    1
42    22    24    ar
43    24    25    1
44    25    26    1
45    26    27    1
46    26    47    1
47    26    48    1
48    27    28    2
49    27    29    1
50    29    30    1
51    30    49    1
52    30    50    1
53    30    51    1
@<TRIPOS>SUBSTRUCTURE
1   ZINC000001145764 1     RESIDUE    1   A     ZIN   1


@<TRIPOS>MOLECULE
CN(CC1)CCN1C2=CC=C([N+]([O-])=O)C3=NO[N+]([O-])=C32
34    36    1     0     0
SMALL
USER_CHARGES
@<TRIPOS>ATOM
1      C1     -0.0178    1.4648    0.0101 C.3      1 ZINC000005180959   -0.0500
2      N2      0.0021   -0.0041    0.0020 N.4      1 ZINC000005180959   -0.3900
3      H3     -0.9446   -0.3531    0.0092 H        1 ZINC000005180959    0.4200
4      C4      0.7119   -0.4904    1.1925 C.3      1 ZINC000005180959    0.0000
5      C5      0.7166   -2.0206    1.1942 C.3      1 ZINC000005180959    0.0300
6      N6      1.3783   -2.5070   -0.0247 N.3      1 ZINC000005180959   -0.5000
7      C7      1.4493   -3.8952   -0.0329 C.ar     1 ZINC000005180959    0.2200
8      C8      0.3118   -4.6524    0.0063 C.ar     1 ZINC000005180959   -0.1300
9      C9      0.3582   -6.0470   -0.0004 C.ar     1 ZINC000005180959    0.0400
10     C10     1.5232   -6.7411   -0.0463 C.ar     1 ZINC000005180959    0.0000
11     N11     1.5016   -8.2229   -0.0514 N.pl3    1 ZINC000005180959    0.0200
12     O12     0.4388   -8.8167   -0.0143 O.2      1 ZINC000005180959   -0.1300
13     O13     2.5468   -8.8470   -0.0926 O.2      1 ZINC000005180959   -0.1200
14     C14     2.7503   -6.0571   -0.0896 C.ar     1 ZINC000005180959    0.0900
15     N15     4.0323   -6.3335   -0.1383 N.2      1 ZINC000005180959   -0.2400
16     O16     4.6621   -5.2947   -0.1581 O.3      1 ZINC000005180959    0.3600
17     N17     4.0100   -4.2698   -0.1301 N.2      1 ZINC000005180959   -0.0200
18     O18     4.5412   -2.9573   -0.1458 O.3      1 ZINC000005180959   -0.3900
19     C19     2.7372   -4.5735   -0.0894 C.ar     1 ZINC000005180959    0.0200
20     C20     0.6932   -2.0076   -1.2253 C.3      1 ZINC000005180959    0.0300
21     C21     0.6890   -0.4775   -1.2069 C.3      1 ZINC000005180959    0.0000
22     H22     1.0047    1.8421    0.0024 H        1 ZINC000005180959    0.1300
23     H23    -0.5450    1.8259   -0.8730 H        1 ZINC000005180959    0.1300
24     H24    -0.5280    1.8163    0.9069 H        1 ZINC000005180959    0.1300
25     H25     1.7384   -0.1239    1.1783 H        1 ZINC000005180959    0.1500
26     H26     0.2090   -0.1276    2.0888 H        1 ZINC000005180959    0.1500
27     H27     1.2562   -2.3817    2.0697 H        1 ZINC000005180959    0.1300
28     H28    -0.3095   -2.3874    1.2221 H        1 ZINC000005180959    0.0800
29     H29    -0.6479   -4.1583    0.0439 H        1 ZINC000005180959    0.1800
30     H30    -0.5710   -6.5963    0.0326 H        1 ZINC000005180959    0.1900
31     H31     1.2157   -2.3592   -2.1150 H        1 ZINC000005180959    0.1300
32     H32    -0.3333   -2.3742   -1.2373 H        1 ZINC000005180959    0.0800
33     H33     0.1689   -0.1049   -2.0894 H        1 ZINC000005180959    0.1500
34     H34     1.7157   -0.1113   -1.2087 H        1 ZINC000005180959    0.1500
@<TRIPOS>BOND
1     1     2     1
2     1     22    1
3     1     23    1
4     1     24    1
5     2     3     1
6     2     21    1
7     2     4     1
8     4     5     1
9     4     25    1
10    4     26    1
11    5     6     1
12    5     27    1
13    5     28    1
14    6     7     1
15    6     20    1
16    7     19    ar
17    7     8     ar
18    8     9     ar
19    8     29    1
20    9     10    ar
21    9     30    1
22    10    11    1
23    10    14    ar
24    11    12    2
25    11    13    2
26    14    19    ar
27    14    15    2
28    15    16    1
29    16    17    1
30    17    18    1
31    17    19    2
32    20    21    1
33    20    31    1
34    20    32    1
35    21    33    1
36    21    34    1
@<TRIPOS>SUBSTRUCTURE
1   ZINC000005180959 1     RESIDUE    1   A     ZIN   1


@<TRIPOS>MOLECULE
O=C(N(C(C(NC(CO)CO)=O)C1=CC=C(F)C(F)=C1)C/2=O)NC2=C/C3=CNC4=C(C)C(Cl)=CC=C43
57    60    1     0     0
SMALL
USER_CHARGES
@<TRIPOS>ATOM
1      C1     -0.0786    1.1453    0.3386 C.3      1 ZINC000169323975   -0.1200
2      C2     -0.4651    1.0900   -1.1169 C.ar     1 ZINC000169323975   -0.0800
3      C3     -0.1286   -0.0196   -1.8849 C.ar     1 ZINC000169323975    0.1000
4      N4      0.5397   -1.1936   -1.6034 N.pl3    1 ZINC000169323975   -0.5700
5      C5      0.6145   -1.9736   -2.7120 C.2      1 ZINC000169323975    0.0900
6      C6      0.0012   -1.3449   -3.7593 C.2      1 ZINC000169323975   -0.1600
7      C7     -0.1353   -1.8498   -5.1256 C.2      1 ZINC000169323975    0.0400
8      C8      0.0594   -3.1715   -5.3854 C.2      1 ZINC000169323975   -0.0200
9      N9      0.2338   -4.2005   -4.4472 N.am     1 ZINC000169323975   -0.6600
10     C10     0.3932   -5.3487   -5.1319 C.2      1 ZINC000169323975    0.7100
11     O11     0.5682   -6.4426   -4.6298 O.2      1 ZINC000169323975   -0.5200
12     N12     0.3298   -5.1071   -6.4519 N.am     1 ZINC000169323975   -0.5600
13     C13     0.4605   -6.1196   -7.5026 C.3      1 ZINC000169323975    0.1800
14     H14     0.4205   -7.1134   -7.0566 H        1 ZINC000169323975    0.1500
15     C15    -0.6671   -5.9666   -8.4906 C.2      1 ZINC000169323975    0.5100
16     O16    -1.4981   -5.0974   -8.3326 O.2      1 ZINC000169323975   -0.5100
17     N17    -0.7521   -6.7957   -9.5498 N.am     1 ZINC000169323975   -0.7000
18     C18    -1.8483   -6.6470  -10.5103 C.3      1 ZINC000169323975    0.1500
19     C19    -1.4203   -7.2156  -11.8647 C.3      1 ZINC000169323975    0.0700
20     O20    -1.2109   -8.6241  -11.7452 O.3      1 ZINC000169323975   -0.5400
21     C21    -3.0766   -7.4056  -10.0038 C.3      1 ZINC000169323975    0.0700
22     O22    -2.7913   -8.8054   -9.9696 O.3      1 ZINC000169323975   -0.5400
23     C23     1.7779   -5.9401   -8.2121 C.ar     1 ZINC000169323975   -0.1000
24     C24     2.1952   -4.6760   -8.5837 C.ar     1 ZINC000169323975   -0.1000
25     C25     3.4034   -4.5088   -9.2347 C.ar     1 ZINC000169323975   -0.1200
26     C26     4.1964   -5.6076   -9.5145 C.ar     1 ZINC000169323975    0.0800
27     F27     5.3773   -5.4450  -10.1502 F        1 ZINC000169323975   -0.1200
28     C28     3.7778   -6.8761   -9.1412 C.ar     1 ZINC000169323975    0.0700
29     F29     4.5504   -7.9505   -9.4133 F        1 ZINC000169323975   -0.1200
30     C30     2.5703   -7.0395   -8.4855 C.ar     1 ZINC000169323975   -0.1000
31     C31     0.1213   -3.7928   -6.6619 C.2      1 ZINC000169323975    0.5700
32     O32     0.0139   -3.2403   -7.7420 O.2      1 ZINC000169323975   -0.4500
33     C33    -0.4961   -0.0566   -3.2397 C.ar     1 ZINC000169323975   -0.0800
34     C34    -1.1904    1.0095   -3.8047 C.ar     1 ZINC000169323975   -0.0600
35     C35    -1.5150    2.1008   -3.0284 C.ar     1 ZINC000169323975   -0.1200
36     C36    -1.1579    2.1372   -1.6876 C.ar     1 ZINC000169323975   -0.0200
37     Cl37   -1.5751    3.5194   -0.7235 Cl       1 ZINC000169323975   -0.0600
38     H38    -0.8740    0.7087    0.9426 H        1 ZINC000169323975    0.0800
39     H39     0.8433    0.5842    0.4914 H        1 ZINC000169323975    0.0600
40     H40     0.0744    2.1831    0.6347 H        1 ZINC000169323975    0.0800
41     H41     0.9050   -1.4282   -0.7360 H        1 ZINC000169323975    0.4200
42     H42     1.0870   -2.9436   -2.7592 H        1 ZINC000169323975    0.1800
43     H43    -0.3905   -1.1736   -5.9282 H        1 ZINC000169323975    0.1600
44     H44     0.2390   -4.1024   -3.4822 H        1 ZINC000169323975    0.4300
45     H45    -0.0875   -7.4908   -9.6762 H        1 ZINC000169323975    0.4100
46     H46    -2.0937   -5.5907  -10.6208 H        1 ZINC000169323975    0.1100
47     H47    -2.2007   -7.0255  -12.6015 H        1 ZINC000169323975    0.0600
48     H48    -0.4948   -6.7364  -12.1838 H        1 ZINC000169323975    0.0500
49     H49    -0.9369   -9.0522  -12.5679 H        1 ZINC000169323975    0.3700
50     H50    -3.3281   -7.0614   -9.0006 H        1 ZINC000169323975    0.0500
51     H51    -3.9179   -7.2225  -10.6722 H        1 ZINC000169323975    0.0500
52     H52    -3.5274   -9.3494   -9.6574 H        1 ZINC000169323975    0.3700
53     H53     1.5767   -3.8179   -8.3656 H        1 ZINC000169323975    0.1700
54     H54     3.7280   -3.5205   -9.5252 H        1 ZINC000169323975    0.1500
55     H55     2.2434   -8.0267   -8.1940 H        1 ZINC000169323975    0.1500
56     H56    -1.4729    0.9816   -4.8467 H        1 ZINC000169323975    0.1400
57     H57    -2.0533    2.9295   -3.4642 H        1 ZINC000169323975    0.1400
@<TRIPOS>BOND
1     1     2     1
2     1     38    1
3     1     39    1
4     1     40    1
5     2     36    ar
6     2     3     ar
7     3     33    ar
8     3     4     1
9     4     5     1
10    4     41    1
11    5     6     2
12    5     42    1
13    6     7     1
14    6     33    1
15    7     8     2
16    7     43    1
17    8     31    1
18    8     9     1
19    9     10    am
20    9     44    1
21    10    11    2
22    10    12    am
23    12    13    1
24    12    31    am
25    13    14    1
26    13    15    1
27    13    23    1
28    15    16    2
29    15    17    am
30    17    18    1
31    17    45    1
32    18    19    1
33    18    21    1
34    18    46    1
35    19    20    1
36    19    47    1
37    19    48    1
38    20    49    1
39    21    22    1
40    21    50    1
41    21    51    1
42    22    52    1
43    23    30    ar
44    23    24    ar
45    24    25    ar
46    24    53    1
47    25    26    ar
48    25    54    1
49    26    27    1
50    26    28    ar
51    28    29    1
52    28    30    ar
53    30    55    1
54    31    32    2
55    33    34    ar
56    34    35    ar
57    34    56    1
58    35    36    ar
59    35    57    1
60    36    37    1
@<TRIPOS>SUBSTRUCTURE
1   ZINC000169323975 1     RESIDUE    1   A     ZIN   1


@<TRIPOS>MOLECULE
O=C(N(C(C(NC(CO)CO)=O)C1=CC=C(F)C(F)=C1)C/2=O)NC2=C/C3=CNC4=C(C)C(Cl)=CC=C43
57    60    1     0     0
SMALL
USER_CHARGES
@<TRIPOS>ATOM
1      C1     -0.0786    1.1453    0.3386 C.3      1 ZINC000169323975   -0.1200
2      C2     -0.4651    1.0900   -1.1169 C.ar     1 ZINC000169323975   -0.0800
3      C3     -0.1286   -0.0196   -1.8849 C.ar     1 ZINC000169323975    0.1000
4      N4      0.5397   -1.1936   -1.6034 N.pl3    1 ZINC000169323975   -0.5700
5      C5      0.6145   -1.9736   -2.7120 C.2      1 ZINC000169323975    0.0900
6      C6      0.0012   -1.3449   -3.7593 C.2      1 ZINC000169323975   -0.1600
7      C7     -0.1353   -1.8498   -5.1256 C.2      1 ZINC000169323975    0.0400
8      C8      0.0594   -3.1715   -5.3854 C.2      1 ZINC000169323975   -0.0200
9      N9      0.2338   -4.2005   -4.4472 N.am     1 ZINC000169323975   -0.6600
10     C10     0.3932   -5.3487   -5.1319 C.2      1 ZINC000169323975    0.7100
11     O11     0.5682   -6.4426   -4.6298 O.2      1 ZINC000169323975   -0.5200
12     N12     0.3298   -5.1071   -6.4519 N.am     1 ZINC000169323975   -0.5600
13     C13     0.4605   -6.1196   -7.5026 C.3      1 ZINC000169323975    0.1800
14     H14     0.4205   -7.1134   -7.0566 H        1 ZINC000169323975    0.1500
15     C15    -0.6671   -5.9666   -8.4906 C.2      1 ZINC000169323975    0.5100
16     O16    -1.4981   -5.0974   -8.3326 O.2      1 ZINC000169323975   -0.5100
17     N17    -0.7521   -6.7957   -9.5498 N.am     1 ZINC000169323975   -0.7000
18     C18    -1.8483   -6.6470  -10.5103 C.3      1 ZINC000169323975    0.1500
19     C19    -1.4203   -7.2156  -11.8647 C.3      1 ZINC000169323975    0.0700
20     O20    -1.2109   -8.6241  -11.7452 O.3      1 ZINC000169323975   -0.5400
21     C21    -3.0766   -7.4056  -10.0038 C.3      1 ZINC000169323975    0.0700
22     O22    -2.7913   -8.8054   -9.9696 O.3      1 ZINC000169323975   -0.5400
23     C23     1.7779   -5.9401   -8.2121 C.ar     1 ZINC000169323975   -0.1000
24     C24     2.1952   -4.6760   -8.5837 C.ar     1 ZINC000169323975   -0.1000
25     C25     3.4034   -4.5088   -9.2347 C.ar     1 ZINC000169323975   -0.1200
26     C26     4.1964   -5.6076   -9.5145 C.ar     1 ZINC000169323975    0.0800
27     F27     5.3773   -5.4450  -10.1502 F        1 ZINC000169323975   -0.1200
28     C28     3.7778   -6.8761   -9.1412 C.ar     1 ZINC000169323975    0.0700
29     F29     4.5504   -7.9505   -9.4133 F        1 ZINC000169323975   -0.1200
30     C30     2.5703   -7.0395   -8.4855 C.ar     1 ZINC000169323975   -0.1000
31     C31     0.1213   -3.7928   -6.6619 C.2      1 ZINC000169323975    0.5700
32     O32     0.0139   -3.2403   -7.7420 O.2      1 ZINC000169323975   -0.4500
33     C33    -0.4961   -0.0566   -3.2397 C.ar     1 ZINC000169323975   -0.0800
34     C34    -1.1904    1.0095   -3.8047 C.ar     1 ZINC000169323975   -0.0600
35     C35    -1.5150    2.1008   -3.0284 C.ar     1 ZINC000169323975   -0.1200
36     C36    -1.1579    2.1372   -1.6876 C.ar     1 ZINC000169323975   -0.0200
37     Cl37   -1.5751    3.5194   -0.7235 Cl       1 ZINC000169323975   -0.0600
38     H38    -0.8740    0.7087    0.9426 H        1 ZINC000169323975    0.0800
39     H39     0.8433    0.5842    0.4914 H        1 ZINC000169323975    0.0600
40     H40     0.0744    2.1831    0.6347 H        1 ZINC000169323975    0.0800
41     H41     0.9050   -1.4282   -0.7360 H        1 ZINC000169323975    0.4200
42     H42     1.0870   -2.9436   -2.7592 H        1 ZINC000169323975    0.1800
43     H43    -0.3905   -1.1736   -5.9282 H        1 ZINC000169323975    0.1600
44     H44     0.2390   -4.1024   -3.4822 H        1 ZINC000169323975    0.4300
45     H45    -0.0875   -7.4908   -9.6762 H        1 ZINC000169323975    0.4100
46     H46    -2.0937   -5.5907  -10.6208 H        1 ZINC000169323975    0.1100
47     H47    -2.2007   -7.0255  -12.6015 H        1 ZINC000169323975    0.0600
48     H48    -0.4948   -6.7364  -12.1838 H        1 ZINC000169323975    0.0500
49     H49    -0.9369   -9.0522  -12.5679 H        1 ZINC000169323975    0.3700
50     H50    -3.3281   -7.0614   -9.0006 H        1 ZINC000169323975    0.0500
51     H51    -3.9179   -7.2225  -10.6722 H        1 ZINC000169323975    0.0500
52     H52    -3.5274   -9.3494   -9.6574 H        1 ZINC000169323975    0.3700
53     H53     1.5767   -3.8179   -8.3656 H        1 ZINC000169323975    0.1700
54     H54     3.7280   -3.5205   -9.5252 H        1 ZINC000169323975    0.1500
55     H55     2.2434   -8.0267   -8.1940 H        1 ZINC000169323975    0.1500
56     H56    -1.4729    0.9816   -4.8467 H        1 ZINC000169323975    0.1400
57     H57    -2.0533    2.9295   -3.4642 H        1 ZINC000169323975    0.1400
@<TRIPOS>BOND
1     1     2     1
2     1     38    1
3     1     39    1
4     1     40    1
5     2     36    ar
6     2     3     ar
7     3     33    ar
8     3     4     1
9     4     5     1
10    4     41    1
11    5     6     2
12    5     42    1
13    6     7     1
14    6     33    1
15    7     8     2
16    7     43    1
17    8     31    1
18    8     9     1
19    9     10    am
20    9     44    1
21    10    11    2
22    10    12    am
23    12    13    1
24    12    31    am
25    13    14    1
26    13    15    1
27    13    23    1
28    15    16    2
29    15    17    am
30    17    18    1
31    17    45    1
32    18    19    1
33    18    21    1
34    18    46    1
35    19    20    1
36    19    47    1
37    19    48    1
38    20    49    1
39    21    22    1
40    21    50    1
41    21    51    1
42    22    52    1
43    23    30    ar
44    23    24    ar
45    24    25    ar
46    24    53    1
47    25    26    ar
48    25    54    1
49    26    27    1
50    26    28    ar
51    28    29    1
52    28    30    ar
53    30    55    1
54    31    32    2
55    33    34    ar
56    34    35    ar
57    34    56    1
58    35    36    ar
59    35    57    1
60    36    37    1
@<TRIPOS>SUBSTRUCTURE
1   ZINC000169323975 1     RESIDUE    1   A     ZIN   1


@<TRIPOS>MOLECULE
O=C1CN(CCN1C)[C@@H](CC2)CC[C@@H]2CN(C)C3=CC=C(C=C3)N4C(CC5=CC(OC)=C(OC(C)C)C=C5[C@@H]4C6=CC=C(Cl)C=C6)=O
95    100   1     0     0
SMALL
USER_CHARGES
@<TRIPOS>ATOM
1      C1     -1.5768    2.7597   -1.6023 C.3      1 ZINC000072314933    0.0200
2      O2     -1.9969    2.6142   -0.2442 O.3      1 ZINC000072314933   -0.3000
3      C3     -2.8276    1.5749    0.0372 C.ar     1 ZINC000072314933    0.1100
4      C4     -3.2252    0.7111   -0.9675 C.ar     1 ZINC000072314933   -0.1700
5      C5     -4.0719   -0.3508   -0.6851 C.ar     1 ZINC000072314933   -0.0700
6      C6     -4.5211   -0.5506    0.6027 C.ar     1 ZINC000072314933   -0.0900
7      C7     -4.1251    0.3138    1.6139 C.ar     1 ZINC000072314933   -0.1600
8      C8     -3.2774    1.3714    1.3387 C.ar     1 ZINC000072314933    0.1200
9      O9     -2.8923    2.2146    2.3339 O.3      1 ZINC000072314933   -0.2900
10     C10    -3.3467    1.9103    3.6541 C.3      1 ZINC000072314933    0.0800
11     C11    -2.3776    2.5063    4.6771 C.3      1 ZINC000072314933   -0.1500
12     C12    -4.7401    2.5066    3.8639 C.3      1 ZINC000072314933   -0.1800
13     C13    -5.4362   -1.6911    0.9504 C.3      1 ZINC000072314933    0.2400
14     H14    -6.1588   -1.3520    1.6927 H        1 ZINC000072314933    0.1000
15     C15    -4.6196   -2.8127    1.5389 C.ar     1 ZINC000072314933   -0.0900
16     C16    -3.9133   -3.6626    0.7083 C.ar     1 ZINC000072314933   -0.0900
17     C17    -3.1642   -4.6914    1.2474 C.ar     1 ZINC000072314933   -0.1100
18     C18    -3.1213   -4.8706    2.6186 C.ar     1 ZINC000072314933   -0.0300
19     Cl19   -2.1802   -6.1623    3.2965 Cl       1 ZINC000072314933   -0.0600
20     C20    -3.8284   -4.0197    3.4493 C.ar     1 ZINC000072314933   -0.1100
21     C21    -4.5726   -2.9878    2.9094 C.ar     1 ZINC000072314933   -0.0900
22     N22    -6.1513   -2.1890   -0.2119 N.am     1 ZINC000072314933   -0.5500
23     C23    -7.3450   -2.8933   -0.0040 C.ar     1 ZINC000072314933    0.0900
24     C24    -7.3374   -4.2816    0.0163 C.ar     1 ZINC000072314933   -0.0500
25     C25    -8.5132   -4.9756    0.2214 C.ar     1 ZINC000072314933   -0.1800
26     C26    -9.7037   -4.2848    0.4075 C.ar     1 ZINC000072314933    0.2200
27     N27   -10.8951   -4.9877    0.6159 N.pl3    1 ZINC000072314933   -0.6300
28     C28   -10.8871   -6.4526    0.6378 C.3      1 ZINC000072314933    0.0900
29     C29   -12.1508   -4.2591    0.8122 C.3      1 ZINC000072314933    0.1300
30     C30   -12.8235   -4.0280   -0.5424 C.3      1 ZINC000072314933   -0.1200
31     C31   -13.2269   -5.3740   -1.1477 C.3      1 ZINC000072314933   -0.1100
32     C32   -14.2036   -6.0836   -0.2078 C.3      1 ZINC000072314933   -0.1500
33     C33   -15.4494   -5.2162   -0.0172 C.3      1 ZINC000072314933    0.0200
34     N34   -16.3871   -5.8975    0.8853 N.4      1 ZINC000072314933   -0.3900
35     H35   -15.9449   -6.0507    1.7792 H        1 ZINC000072314933    0.4300
36     C36   -16.7809   -7.1897    0.3025 C.3      1 ZINC000072314933   -0.0300
37     C37   -17.5481   -7.9920    1.3553 C.3      1 ZINC000072314933    0.0900
38     N38   -18.6149   -7.1725    1.9248 N.am     1 ZINC000072314933   -0.6100
39     C39   -19.7009   -7.8363    2.6503 C.3      1 ZINC000072314933    0.0700
40     C40   -18.6392   -5.8397    1.8105 C.2      1 ZINC000072314933    0.5000
41     O41   -19.5471   -5.2275    2.3319 O.2      1 ZINC000072314933   -0.4900
42     C42   -17.5860   -5.0693    1.0652 C.3      1 ZINC000072314933   -0.0200
43     C43   -15.0459   -3.8702    0.5881 C.3      1 ZINC000072314933   -0.1500
44     C44   -14.0693   -3.1605   -0.3518 C.3      1 ZINC000072314933   -0.1100
45     C45    -9.7111   -2.8961    0.3872 C.ar     1 ZINC000072314933   -0.1900
46     C46    -8.5342   -2.2025    0.1873 C.ar     1 ZINC000072314933   -0.0600
47     C47    -5.7334   -2.0119   -1.4667 C.2      1 ZINC000072314933    0.5300
48     O48    -6.3964   -2.4761   -2.3702 O.2      1 ZINC000072314933   -0.5300
49     C49    -4.4809   -1.2648   -1.8076 C.3      1 ZINC000072314933   -0.0900
50     H50    -0.9195    3.6249   -1.6886 H        1 ZINC000072314933    0.1000
51     H51    -1.0408    1.8635   -1.9147 H        1 ZINC000072314933    0.0600
52     H52    -2.4498    2.9016   -2.2394 H        1 ZINC000072314933    0.0600
53     H53    -2.8747    0.8645   -1.9774 H        1 ZINC000072314933    0.1400
54     H54    -4.4781    0.1574    2.6225 H        1 ZINC000072314933    0.1400
55     H55    -3.3912    0.8289    3.7828 H        1 ZINC000072314933    0.0700
56     H56    -2.3331    3.5878    4.5483 H        1 ZINC000072314933    0.0700
57     H57    -2.7243    2.2742    5.6841 H        1 ZINC000072314933    0.0800
58     H58    -1.3850    2.0815    4.5276 H        1 ZINC000072314933    0.0700
59     H59    -5.4305    2.0820    3.1351 H        1 ZINC000072314933    0.0600
60     H60    -5.0867    2.2745    4.8709 H        1 ZINC000072314933    0.0700
61     H61    -4.6956    3.5881    3.7351 H        1 ZINC000072314933    0.0700
62     H62    -3.9472   -3.5228   -0.3621 H        1 ZINC000072314933    0.1200
63     H63    -2.6128   -5.3556    0.5984 H        1 ZINC000072314933    0.1400
64     H64    -3.7955   -4.1593    4.5198 H        1 ZINC000072314933    0.1400
65     H65    -5.1243   -2.3232    3.5578 H        1 ZINC000072314933    0.1300
66     H66    -6.4117   -4.8187   -0.1288 H        1 ZINC000072314933    0.1200
67     H67    -8.5073   -6.0554    0.2368 H        1 ZINC000072314933    0.1300
68     H68   -10.7173   -6.7998    1.6570 H        1 ZINC000072314933    0.0500
69     H69   -11.8471   -6.8265    0.2817 H        1 ZINC000072314933    0.0600
70     H70   -10.0910   -6.8213   -0.0090 H        1 ZINC000072314933    0.0700
71     H71   -12.8131   -4.8423    1.4520 H        1 ZINC000072314933    0.0700
72     H72   -11.9435   -3.2984    1.2835 H        1 ZINC000072314933    0.0800
73     H73   -12.1277   -3.5224   -1.2121 H        1 ZINC000072314933    0.0900
74     H74   -13.7062   -5.2093   -2.1128 H        1 ZINC000072314933    0.0800
75     H75   -12.3394   -5.9919   -1.2835 H        1 ZINC000072314933    0.0900
76     H76   -14.4910   -7.0425   -0.6390 H        1 ZINC000072314933    0.0900
77     H77   -13.7244   -6.2483    0.7573 H        1 ZINC000072314933    0.0900
78     H78   -15.9286   -5.0515   -0.9822 H        1 ZINC000072314933    0.1400
79     H79   -17.4194   -7.0201   -0.5645 H        1 ZINC000072314933    0.1400
80     H80   -15.8903   -7.7409    0.0006 H        1 ZINC000072314933    0.1600
81     H81   -17.9810   -8.8780    0.8908 H        1 ZINC000072314933    0.1300
82     H82   -16.8642   -8.2974    2.1472 H        1 ZINC000072314933    0.1000
83     H83   -19.4378   -7.9158    3.7050 H        1 ZINC000072314933    0.0700
84     H84   -20.6162   -7.2535    2.5471 H        1 ZINC000072314933    0.0900
85     H85   -19.8566   -8.8334    2.2384 H        1 ZINC000072314933    0.0900
86     H86   -17.3284   -4.1721    1.6281 H        1 ZINC000072314933    0.1700
87     H87   -17.9728   -4.7815    0.0876 H        1 ZINC000072314933    0.1600
88     H88   -15.9335   -3.2522    0.7239 H        1 ZINC000072314933    0.0900
89     H89   -14.5667   -4.0348    1.5532 H        1 ZINC000072314933    0.0900
90     H90   -13.7818   -2.2016    0.0794 H        1 ZINC000072314933    0.0900
91     H91   -14.5485   -2.9959   -1.3169 H        1 ZINC000072314933    0.0800
92     H92   -10.6368   -2.3588    0.5316 H        1 ZINC000072314933    0.1200
93     H93    -8.5399   -1.1226    0.1715 H        1 ZINC000072314933    0.1200
94     H94    -4.6513   -0.6728   -2.7068 H        1 ZINC000072314933    0.1200
95     H95    -3.6793   -1.9786   -1.9973 H        1 ZINC000072314933    0.1200
@<TRIPOS>BOND
1     1     2     1
2     1     50    1
3     1     51    1
4     1     52    1
5     2     3     1
6     3     8     ar
7     3     4     ar
8     4     5     ar
9     4     53    1
10    5     49    1
11    5     6     ar
12    6     7     ar
13    6     13    1
14    7     8     ar
15    7     54    1
16    8     9     1
17    9     10    1
18    10    11    1
19    10    12    1
20    10    55    1
21    11    56    1
22    11    57    1
23    11    58    1
24    12    59    1
25    12    60    1
26    12    61    1
27    13    14    1
28    13    15    1
29    13    22    1
30    15    21    ar
31    15    16    ar
32    16    17    ar
33    16    62    1
34    17    18    ar
35    17    63    1
36    18    19    1
37    18    20    ar
38    20    21    ar
39    20    64    1
40    21    65    1
41    22    23    1
42    22    47    am
43    23    46    ar
44    23    24    ar
45    24    25    ar
46    24    66    1
47    25    26    ar
48    25    67    1
49    26    27    1
50    26    45    ar
51    27    28    1
52    27    29    1
53    28    68    1
54    28    69    1
55    28    70    1
56    29    30    1
57    29    71    1
58    29    72    1
59    30    44    1
60    30    31    1
61    30    73    1
62    31    32    1
63    31    74    1
64    31    75    1
65    32    33    1
66    32    76    1
67    32    77    1
68    33    34    1
69    33    43    1
70    33    78    1
71    34    35    1
72    34    42    1
73    34    36    1
74    36    37    1
75    36    79    1
76    36    80    1
77    37    38    1
78    37    81    1
79    37    82    1
80    38    39    1
81    38    40    am
82    39    83    1
83    39    84    1
84    39    85    1
85    40    41    2
86    40    42    1
87    42    86    1
88    42    87    1
89    43    44    1
90    43    88    1
91    43    89    1
92    44    90    1
93    44    91    1
94    45    46    ar
95    45    92    1
96    46    93    1
97    47    48    2
98    47    49    1
99    49    94    1
100   49    95    1
@<TRIPOS>SUBSTRUCTURE
1   ZINC000072314933 1     RESIDUE    1   A     ZIN   1


@<TRIPOS>MOLECULE
CN(C1CCS(=O)(=O)CC1)C(=O)CNC(=O)C=CC2=CC(=CC=C2)Cl 
46    47    1     0     0
SMALL
USER_CHARGES
@<TRIPOS>ATOM
1      C1     -0.0178    1.4608    0.0101 C.3      1 ZINC000198362743    0.0600
2      N2      0.0021   -0.0041    0.0020 N.am     1 ZINC000198362743   -0.6000
3      C3      0.0224   -0.6841    1.1654 C.2      1 ZINC000198362743    0.5100
4      O4      0.0388   -1.8968    1.1588 O.2      1 ZINC000198362743   -0.5300
5      C5      0.0246    0.0623    2.4746 C.3      1 ZINC000198362743    0.1000
6      N6      0.0481   -0.8956    3.5828 N.am     1 ZINC000198362743   -0.7200
7      C7      0.0542   -0.4532    4.8559 C.2      1 ZINC000198362743    0.5500
8      O8      0.0401    0.7419    5.0848 O.2      1 ZINC000198362743   -0.5400
9      C9      0.0777   -1.4106    5.9636 C.2      1 ZINC000198362743   -0.2100
10     C10     0.0838   -0.9682    7.2369 C.2      1 ZINC000198362743   -0.0100
11     C11     0.1074   -1.9307    8.3505 C.ar     1 ZINC000198362743   -0.0700
12     C12     0.1294   -3.3045    8.0913 C.ar     1 ZINC000198362743   -0.1000
13     C13     0.1515   -4.2005    9.1395 C.ar     1 ZINC000198362743   -0.1100
14     C14     0.1514   -3.7436   10.4455 C.ar     1 ZINC000198362743   -0.1000
15     C15     0.1292   -2.3842   10.7111 C.ar     1 ZINC000198362743   -0.0400
16     Cl16    0.1293   -1.8225   12.3537 Cl       1 ZINC000198362743   -0.0600
17     C17     0.1137   -1.4754    9.6727 C.ar     1 ZINC000198362743   -0.0900
18     C18    -0.0001   -0.7297   -1.2707 C.3      1 ZINC000198362743    0.1200
19     C19    -1.2740   -0.3922   -2.0398 C.3      1 ZINC000198362743   -0.1200
20     C20    -1.4207   -1.3252   -3.2439 C.3      1 ZINC000198362743   -0.6000
21     S21    -0.0383   -1.0374   -4.3869 S.o2     1 ZINC000198362743    2.4100
22     O22    -0.0292   -2.0735   -5.3595 O.2      1 ZINC000198362743   -0.9400
23     O23    -0.0761    0.3172   -4.8143 O.2      1 ZINC000198362743   -0.9300
24     C24     1.3881   -1.2624   -3.2846 C.3      1 ZINC000198362743   -0.6000
25     C25     1.2347   -0.3361   -2.0761 C.3      1 ZINC000198362743   -0.1200
26     H26     1.0048    1.8381    0.0023 H        1 ZINC000198362743    0.0700
27     H27    -0.5450    1.8219   -0.8730 H        1 ZINC000198362743    0.0800
28     H28    -0.5280    1.8123    0.9069 H        1 ZINC000198362743    0.0800
29     H29     0.9065    0.7007    2.5274 H        1 ZINC000198362743    0.1000
30     H30    -0.8732    0.6764    2.5442 H        1 ZINC000198362743    0.1000
31     H31     0.0594   -1.8482    3.4003 H        1 ZINC000198362743    0.4100
32     H32     0.0902   -2.4713    5.7604 H        1 ZINC000198362743    0.1300
33     H33     0.0712    0.0925    7.4401 H        1 ZINC000198362743    0.1400
34     H34     0.1288   -3.6631    7.0726 H        1 ZINC000198362743    0.1400
35     H35     0.1685   -5.2619    8.9403 H        1 ZINC000198362743    0.1400
36     H36     0.1684   -4.4504   11.2620 H        1 ZINC000198362743    0.1400
37     H37     0.0964   -0.4158    9.8807 H        1 ZINC000198362743    0.1400
38     H38     0.0264   -1.8013   -1.0732 H        1 ZINC000198362743    0.1200
39     H39    -2.1356   -0.5113   -1.3827 H        1 ZINC000198362743    0.0900
40     H40    -1.2249    0.6402   -2.3859 H        1 ZINC000198362743    0.0900
41     H41    -1.4053   -2.3615   -2.9064 H        1 ZINC000198362743    0.1400
42     H42    -2.3629   -1.1196   -3.7520 H        1 ZINC000198362743    0.1400
43     H43     1.4287   -2.2981   -2.9474 H        1 ZINC000198362743    0.1400
44     H44     2.3050   -1.0152   -3.8195 H        1 ZINC000198362743    0.1400
45     H45     1.1295    0.6929   -2.4199 H        1 ZINC000198362743    0.0900
46     H46     2.1193   -0.4161   -1.4443 H        1 ZINC000198362743    0.0900
@<TRIPOS>BOND
1     1     2     1
2     1     26    1
3     1     27    1
4     1     28    1
5     2     3     am
6     2     18    1
7     3     4     2
8     3     5     1
9     5     6     1
10    5     29    1
11    5     30    1
12    6     7     am
13    6     31    1
14    7     8     2
15    7     9     1
16    9     10    2
17    9     32    1
18    10    11    1
19    10    33    1
20    11    17    ar
21    11    12    ar
22    12    13    ar
23    12    34    1
24    13    14    ar
25    13    35    1
26    14    15    ar
27    14    36    1
28    15    16    1
29    15    17    ar
30    17    37    1
31    18    25    1
32    18    19    1
33    18    38    1
34    19    20    1
35    19    39    1
36    19    40    1
37    20    21    1
38    20    41    1
39    20    42    1
40    21    22    2
41    21    23    2
42    21    24    1
43    24    25    1
44    24    43    1
45    24    44    1
46    25    45    1
47    25    46    1
@<TRIPOS>SUBSTRUCTURE
1   ZINC000198362743 1     RESIDUE    1   A     ZIN   1


@<TRIPOS>MOLECULE
CC1=C(SC2=C1C(=NC(C3=NN=C(N32)C)CC(=O)OC(C)(C)C)C4=CC=C(C=C4)Cl)C
56    59    1     0     0
SMALL
USER_CHARGES
@<TRIPOS>ATOM
1      C1     -0.1543    1.5591    0.1680 C.3      1 ZINC000057318556   -0.0700
2      C2     -0.0890    0.0553    0.0949 C.2      1 ZINC000057318556    0.1900
3      N3     -0.0639   -0.6736   -0.9921 N.2      1 ZINC000057318556   -0.2700
4      N4     -0.0023   -1.9227   -0.6825 N.2      1 ZINC000057318556   -0.2600
5      C5      0.0183   -2.0535    0.6127 C.2      1 ZINC000057318556    0.1700
6      C6      0.1051   -3.3276    1.4115 C.3      1 ZINC000057318556    0.1800
7      H7      0.1517   -4.1801    0.7338 H        1 ZINC000057318556    0.1500
8      C8     -1.1281   -3.4541    2.3082 C.3      1 ZINC000057318556   -0.1400
9      C9     -1.1013   -4.7850    3.0146 C.2      1 ZINC000057318556    0.4700
10     O10    -0.1893   -5.5536    2.8207 O.2      1 ZINC000057318556   -0.4800
11     O11    -2.0905   -5.1167    3.8591 O.3      1 ZINC000057318556   -0.3500
12     C12    -1.9992   -6.4143    4.5042 C.3      1 ZINC000057318556    0.1200
13     C13    -0.7130   -6.4841    5.3298 C.3      1 ZINC000057318556   -0.1800
14     C14    -3.2064   -6.6133    5.4228 C.3      1 ZINC000057318556   -0.1400
15     C15    -1.9820   -7.5130    3.4395 C.3      1 ZINC000057318556   -0.1800
16     N16     1.3127   -3.2939    2.2395 N.2      1 ZINC000057318556   -0.4600
17     C17     1.4969   -2.4061    3.1627 C.2      1 ZINC000057318556    0.2800
18     C18     2.7120   -2.5469    3.9987 C.ar     1 ZINC000057318556   -0.0500
19     C19     3.1503   -3.8122    4.3888 C.ar     1 ZINC000057318556   -0.0600
20     C20     4.2825   -3.9377    5.1667 C.ar     1 ZINC000057318556   -0.1100
21     C21     4.9833   -2.8101    5.5608 C.ar     1 ZINC000057318556   -0.0200
22     Cl22    6.4070   -2.9751    6.5403 Cl       1 ZINC000057318556   -0.0600
23     C23     4.5527   -1.5515    5.1759 C.ar     1 ZINC000057318556   -0.1200
24     C24     3.4248   -1.4151    4.3936 C.ar     1 ZINC000057318556   -0.0700
25     C25     0.6076   -1.2655    3.4592 C.2      1 ZINC000057318556   -0.1100
26     C26    -0.0613   -0.5225    2.5093 C.2      1 ZINC000057318556   -0.0100
27     S27    -0.9403    0.7473    3.2341 S.3      1 ZINC000057318556    0.2400
28     C28    -0.4551    0.2692    4.8490 C.2      1 ZINC000057318556   -0.1800
29     C29    -0.8854    0.9652    6.1145 C.3      1 ZINC000057318556   -0.0800
30     C30     0.3402   -0.7859    4.8043 C.2      1 ZINC000057318556   -0.0600
31     C31     0.9168   -1.4330    6.0371 C.3      1 ZINC000057318556   -0.1200
32     N32    -0.0390   -0.8033    1.1415 N.pl3    1 ZINC000057318556   -0.4000
33     H33     0.8566    1.9668    0.1736 H        1 ZINC000057318556    0.1000
34     H34    -0.6956    1.9418   -0.6973 H        1 ZINC000057318556    0.1100
35     H35    -0.6711    1.8565    1.0804 H        1 ZINC000057318556    0.0800
36     H36    -1.1251   -2.6513    3.0455 H        1 ZINC000057318556    0.1100
37     H37    -2.0292   -3.3843    1.6988 H        1 ZINC000057318556    0.1200
38     H38    -0.7252   -5.7014    6.0883 H        1 ZINC000057318556    0.0600
39     H39    -0.6444   -7.4582    5.8140 H        1 ZINC000057318556    0.0700
40     H40     0.1471   -6.3424    4.6753 H        1 ZINC000057318556    0.0800
41     H41    -4.1227   -6.5636    4.8346 H        1 ZINC000057318556    0.0700
42     H42    -3.1378   -7.5874    5.9071 H        1 ZINC000057318556    0.0800
43     H43    -3.2186   -5.8306    6.1813 H        1 ZINC000057318556    0.0700
44     H44    -1.1219   -7.3713    2.7850 H        1 ZINC000057318556    0.0800
45     H45    -1.9134   -8.4871    3.9237 H        1 ZINC000057318556    0.0700
46     H46    -2.8983   -7.4633    2.8513 H        1 ZINC000057318556    0.0600
47     H47     2.6041   -4.6921    4.0826 H        1 ZINC000057318556    0.1400
48     H48     4.6228   -4.9170    5.4693 H        1 ZINC000057318556    0.1400
49     H49     5.1029   -0.6754    5.4860 H        1 ZINC000057318556    0.1400
50     H50     3.0900   -0.4330    4.0937 H        1 ZINC000057318556    0.1300
51     H51    -1.5375    1.8023    5.8651 H        1 ZINC000057318556    0.0700
52     H52    -1.4234    0.2625    6.7508 H        1 ZINC000057318556    0.0900
53     H53    -0.0065    1.3343    6.6430 H        1 ZINC000057318556    0.0900
54     H54     0.2879   -2.2720    6.3350 H        1 ZINC000057318556    0.0800
55     H55     1.9234   -1.7917    5.8222 H        1 ZINC000057318556    0.0900
56     H56     0.9561   -0.7033    6.8459 H        1 ZINC000057318556    0.0800
@<TRIPOS>BOND
1     1     2     1
2     1     33    1
3     1     34    1
4     1     35    1
5     2     32    1
6     2     3     2
7     3     4     1
8     4     5     2
9     5     32    1
10    5     6     1
11    6     7     1
12    6     8     1
13    6     16    1
14    8     9     1
15    8     36    1
16    8     37    1
17    9     10    2
18    9     11    1
19    11    12    1
20    12    13    1
21    12    14    1
22    12    15    1
23    13    38    1
24    13    39    1
25    13    40    1
26    14    41    1
27    14    42    1
28    14    43    1
29    15    44    1
30    15    45    1
31    15    46    1
32    16    17    2
33    17    18    1
34    17    25    1
35    18    24    ar
36    18    19    ar
37    19    20    ar
38    19    47    1
39    20    21    ar
40    20    48    1
41    21    22    1
42    21    23    ar
43    23    24    ar
44    23    49    1
45    24    50    1
46    25    30    1
47    25    26    2
48    26    27    1
49    26    32    1
50    27    28    1
51    28    29    1
52    28    30    2
53    29    51    1
54    29    52    1
55    29    53    1
56    30    31    1
57    31    54    1
58    31    55    1
59    31    56    1
@<TRIPOS>SUBSTRUCTURE
1   ZINC000057318556 1     RESIDUE    1   A     ZIN   1


@<TRIPOS>MOLECULE
CN(C1CCS(=O)(=O)C1)C(=O)COC(=O)C=CC2=CC(=CC=C2)[N+](=O)[O-]
44    45    1     0     0
SMALL
USER_CHARGES
@<TRIPOS>ATOM
1      C1     -0.0178    1.4608    0.0101 C.3      1 ZINC000002644083    0.0600
2      N2      0.0021   -0.0041    0.0020 N.am     1 ZINC000002644083   -0.6000
3      C3      0.0224   -0.6841    1.1654 C.2      1 ZINC000002644083    0.5200
4      O4      0.0388   -1.8968    1.1588 O.2      1 ZINC000002644083   -0.5100
5      C5      0.0246    0.0623    2.4746 C.3      1 ZINC000002644083    0.0500
6      O6      0.0476   -0.8721    3.5556 O.3      1 ZINC000002644083   -0.3200
7      C7      0.0525   -0.3632    4.8050 C.2      1 ZINC000002644083    0.5000
8      O8      0.0376    0.8416    4.9710 O.2      1 ZINC000002644083   -0.5000
9      C9      0.0756   -1.2601    5.9597 C.2      1 ZINC000002644083   -0.1800
10     C10     0.0805   -0.7512    7.2092 C.2      1 ZINC000002644083   -0.0100
11     C11     0.1038   -1.6539    8.3714 C.ar     1 ZINC000002644083   -0.0800
12     C12     0.1267   -3.0395    8.1846 C.ar     1 ZINC000002644083   -0.0500
13     C13     0.1484   -3.8788    9.2787 C.ar     1 ZINC000002644083   -0.1100
14     C14     0.1476   -3.3529   10.5587 C.ar     1 ZINC000002644083   -0.0400
15     C15     0.1246   -1.9824   10.7519 C.ar     1 ZINC000002644083   -0.0400
16     N16     0.1239   -1.4304   12.1253 N.pl3    1 ZINC000002644083    0.0200
17     O17     0.1436   -2.1818   13.0836 O.2      1 ZINC000002644083   -0.1500
18     O18     0.1037   -0.2247   12.2970 O.2      1 ZINC000002644083   -0.1500
19     C19     0.1090   -1.1301    9.6683 C.ar     1 ZINC000002644083   -0.0300
20     C20    -0.0001   -0.7297   -1.2707 C.3      1 ZINC000002644083    0.1400
21     H21     0.0288   -1.8038   -1.0877 H        1 ZINC000002644083    0.1300
22     C22     1.2112   -0.3071   -2.1203 C.3      1 ZINC000002644083   -0.1300
23     C23     1.0046   -0.8129   -3.5619 C.3      1 ZINC000002644083   -0.5900
24     S24    -0.8094   -0.8880   -3.7846 S.o2     1 ZINC000002644083    2.4000
25     O25    -1.2119    0.1114   -4.7111 O.2      1 ZINC000002644083   -0.9300
26     O26    -1.2038   -2.2385   -3.9847 O.2      1 ZINC000002644083   -0.9300
27     C27    -1.2658   -0.3641   -2.0881 C.3      1 ZINC000002644083   -0.6100
28     H28     1.0048    1.8381    0.0023 H        1 ZINC000002644083    0.0700
29     H29    -0.5450    1.8219   -0.8730 H        1 ZINC000002644083    0.0800
30     H30    -0.5280    1.8123    0.9069 H        1 ZINC000002644083    0.0800
31     H31     0.9065    0.7007    2.5274 H        1 ZINC000002644083    0.1000
32     H32    -0.8732    0.6764    2.5442 H        1 ZINC000002644083    0.1000
33     H33     0.0888   -2.3299    5.8123 H        1 ZINC000002644083    0.1500
34     H34     0.0674    0.3186    7.3566 H        1 ZINC000002644083    0.1500
35     H35     0.1270   -3.4514    7.1862 H        1 ZINC000002644083    0.1500
36     H36     0.1657   -4.9492    9.1361 H        1 ZINC000002644083    0.1600
37     H37     0.1647   -4.0154   11.4116 H        1 ZINC000002644083    0.1600
38     H38     0.0914   -0.0611    9.8206 H        1 ZINC000002644083    0.1600
39     H39     1.2965    0.7796   -2.1219 H        1 ZINC000002644083    0.0900
40     H40     2.1199   -0.7434   -1.7055 H        1 ZINC000002644083    0.1000
41     H41     1.4449   -0.1155   -4.2745 H        1 ZINC000002644083    0.1500
42     H42     1.4420   -1.8041   -3.6815 H        1 ZINC000002644083    0.1400
43     H43    -2.1323   -0.9209   -1.7313 H        1 ZINC000002644083    0.1500
44     H44    -1.4524    0.7092   -2.0517 H        1 ZINC000002644083    0.1400
@<TRIPOS>BOND
1     1     2     1
2     1     28    1
3     1     29    1
4     1     30    1
5     2     3     am
6     2     20    1
7     3     4     2
8     3     5     1
9     5     6     1
10    5     31    1
11    5     32    1
12    6     7     1
13    7     8     2
14    7     9     1
15    9     10    2
16    9     33    1
17    10    11    1
18    10    34    1
19    11    19    ar
20    11    12    ar
21    12    13    ar
22    12    35    1
23    13    14    ar
24    13    36    1
25    14    15    ar
26    14    37    1
27    15    16    1
28    15    19    ar
29    16    17    2
30    16    18    2
31    19    38    1
32    20    21    1
33    20    27    1
34    20    22    1
35    22    23    1
36    22    39    1
37    22    40    1
38    23    24    1
39    23    41    1
40    23    42    1
41    24    25    2
42    24    26    2
43    24    27    1
44    27    43    1
45    27    44    1
@<TRIPOS>SUBSTRUCTURE
1   ZINC000002644083 1     RESIDUE    1   A     ZIN   1


@<TRIPOS>MOLECULE
C1COCCN1C2=CC(=O)C3=C(O2)C(=CC=C3)C4=CC=CC=C4
40    43    1     0     0
SMALL
USER_CHARGES
@<TRIPOS>ATOM
1      O1      0.0062    0.0118   -0.2718 O.2      1 ZINC000000006014   -0.4900
2      C2     -0.0122    1.2249   -0.1380 C.2      1 ZINC000000006014    0.4300
3      C3     -1.2251    1.9400   -0.1142 C.2      1 ZINC000000006014   -0.4000
4      C4     -1.2042    3.2940    0.0375 C.2      1 ZINC000000006014    0.4300
5      N5     -2.3949    3.9735    0.0588 N.pl3    1 ZINC000000006014   -0.6100
6      C6     -3.6101    3.3551    0.6120 C.3      1 ZINC000000006014    0.0900
7      C7     -4.2346    4.3303    1.6164 C.3      1 ZINC000000006014    0.0400
8      O8     -4.3988    5.6065    0.9936 O.3      1 ZINC000000006014   -0.3800
9      C9     -3.1739    6.2213    0.5868 C.3      1 ZINC000000006014    0.0500
10     C10    -2.4938    5.3450   -0.4652 C.3      1 ZINC000000006014    0.0800
11     O11    -0.0646    3.9867    0.1670 O.3      1 ZINC000000006014   -0.2400
12     C12     1.1457    3.3910    0.1564 C.ar     1 ZINC000000006014    0.1600
13     C13     2.3178    4.1433    0.2945 C.ar     1 ZINC000000006014   -0.0700
14     C14     2.2436    5.6158    0.4556 C.ar     1 ZINC000000006014   -0.0500
15     C15     1.4733    6.3775   -0.4213 C.ar     1 ZINC000000006014   -0.1000
16     C16     1.4075    7.7473   -0.2664 C.ar     1 ZINC000000006014   -0.1200
17     C17     2.1044    8.3644    0.7568 C.ar     1 ZINC000000006014   -0.1100
18     C18     2.8706    7.6135    1.6301 C.ar     1 ZINC000000006014   -0.1200
19     C19     2.9394    6.2425    1.4879 C.ar     1 ZINC000000006014   -0.1000
20     C20     3.5524    3.5031    0.2805 C.ar     1 ZINC000000006014   -0.0500
21     C21     3.6301    2.1295    0.1311 C.ar     1 ZINC000000006014   -0.1400
22     C22     2.4829    1.3758   -0.0065 C.ar     1 ZINC000000006014   -0.0300
23     C23     1.2370    2.0001    0.0115 C.ar     1 ZINC000000006014   -0.2100
24     H24    -2.1655    1.4189   -0.2158 H        1 ZINC000000006014    0.1500
25     H25    -4.3178    3.1530   -0.1921 H        1 ZINC000000006014    0.0900
26     H26    -3.3513    2.4241    1.1164 H        1 ZINC000000006014    0.1000
27     H27    -5.2063    3.9527    1.9346 H        1 ZINC000000006014    0.1100
28     H28    -3.5803    4.4294    2.4826 H        1 ZINC000000006014    0.0600
29     H29    -3.3825    7.2041    0.1642 H        1 ZINC000000006014    0.1100
30     H30    -2.5158    6.3272    1.4492 H        1 ZINC000000006014    0.0600
31     H31    -1.4969    5.7317   -0.6764 H        1 ZINC000000006014    0.1000
32     H32    -3.0877    5.3409   -1.3792 H        1 ZINC000000006014    0.0900
33     H33     0.9290    5.8967   -1.2207 H        1 ZINC000000006014    0.1200
34     H34     0.8112    8.3385   -0.9455 H        1 ZINC000000006014    0.1300
35     H35     2.0504    9.4367    0.8741 H        1 ZINC000000006014    0.1200
36     H36     3.4126    8.1006    2.4271 H        1 ZINC000000006014    0.1300
37     H37     3.5379    5.6572    2.1703 H        1 ZINC000000006014    0.1300
38     H38     4.4576    4.0826    0.3866 H        1 ZINC000000006014    0.1400
39     H39     4.5951    1.6445    0.1218 H        1 ZINC000000006014    0.1400
40     H40     2.5499    0.3042   -0.1230 H        1 ZINC000000006014    0.1400
@<TRIPOS>BOND
1     1     2     2
2     2     23    1
3     2     3     1
4     3     4     2
5     3     24    1
6     4     5     1
7     4     11    1
8     5     10    1
9     5     6     1
10    6     7     1
11    6     25    1
12    6     26    1
13    7     8     1
14    7     27    1
15    7     28    1
16    8     9     1
17    9     10    1
18    9     29    1
19    9     30    1
20    10    31    1
21    10    32    1
22    11    12    1
23    12    23    ar
24    12    13    ar
25    13    14    1
26    13    20    ar
27    14    19    ar
28    14    15    ar
29    15    16    ar
30    15    33    1
31    16    17    ar
32    16    34    1
33    17    18    ar
34    17    35    1
35    18    19    ar
36    18    36    1
37    19    37    1
38    20    21    ar
39    20    38    1
40    21    22    ar
41    21    39    1
42    22    23    ar
43    22    40    1
@<TRIPOS>SUBSTRUCTURE
1   ZINC000000006014 1     RESIDUE    1   A     ZIN   1


@<TRIPOS>MOLECULE
CC(C)(C)C1=CN=C(O1)CSC2=CN=C(S2)NC(=O)C3CCNCC3
  50   52    0    0    0
SMALL
USER_CHARGES
NO_NAME
@<TRIPOS>ATOM
    1 C1       -0.0187     1.5258     0.0104 C.3    1 <0>      -0.1400
    2 C2        0.0021    -0.0041     0.0020 C.3    1 <0>       0.0200
    3 C3        0.7421    -0.5109     1.2415 C.3    1 <0>      -0.1400
    4 C4       -1.4333    -0.5336     0.0129 C.3    1 <0>      -0.1500
    5 C5        0.7074    -0.4901    -1.2379 C.2    1 <0>      -0.0100
    6 C6        1.9790    -0.2319    -1.5855 C.2    1 <0>      -0.0400
    7 N7        2.2153    -0.8490    -2.7568 N.2    1 <0>      -0.4500
    8 C8        1.1320    -1.4698    -3.1277 C.2    1 <0>       0.1800
    9 C9        0.9742    -2.2844    -4.3857 C.3    1 <0>      -0.0300
   10 S10       1.4250    -4.0091    -4.0499 S.3    1 <0>       0.0300
   11 C11       1.1821    -4.7931    -5.6090 C.2    1 <0>      -0.2400
   12 C12       1.3800    -6.0917    -5.8751 C.2    1 <0>       0.0900
   13 N13       1.1336    -6.4631    -7.1186 N.2    1 <0>      -0.4500
   14 C14       0.7315    -5.5440    -7.9400 C.2    1 <0>       0.2800
   15 N15       0.4232    -5.7421    -9.2830 N.am   1 <0>      -0.6300
   16 C16       0.5350    -6.9706    -9.8260 C.2    1 <0>       0.5100
   17 O17       0.9041    -7.9036    -9.1444 O.2    1 <0>      -0.4500
   18 C18       0.2013    -7.1850   -11.2798 C.3    1 <0>      -0.1200
   19 C19       1.1196    -6.3209   -12.1489 C.3    1 <0>      -0.1500
   20 C20       0.8296    -6.6028   -13.6247 C.3    1 <0>       0.0000
   21 N21       1.0733    -8.0212   -13.9128 N.4    1 <0>      -0.5100
   22 H22       0.9330    -8.1924   -14.8972 H      1 <0>       0.4400
   23 H23       2.0226    -8.2557   -13.6636 H      1 <0>       0.4300
   24 C24       0.1469    -8.8536   -13.1360 C.3    1 <0>      -0.0100
   25 C25       0.4105    -8.6584   -11.6414 C.3    1 <0>      -0.1300
   26 S26       0.6295    -4.0067    -7.0863 S.3    1 <0>       0.1000
   27 O27       0.1830    -1.2702    -2.2034 O.3    1 <0>      -0.1900
   28 H28       1.0039     1.9031     0.0027 H      1 <0>       0.0600
   29 H29      -0.5459     1.8868    -0.8726 H      1 <0>       0.0600
   30 H30      -0.5289     1.8773     0.9072 H      1 <0>       0.0800
   31 H31       0.2319    -0.1594     2.1383 H      1 <0>       0.0800
   32 H32       0.7568    -1.6008     1.2356 H      1 <0>       0.0600
   33 H33       1.7647    -0.1336     1.2338 H      1 <0>       0.0600
   34 H34      -1.9605    -0.1726    -0.8702 H      1 <0>       0.0600
   35 H35      -1.4185    -1.6235     0.0069 H      1 <0>       0.0600
   36 H36      -1.9435    -0.1821     0.9097 H      1 <0>       0.0700
   37 H37       2.6845     0.3639    -1.0254 H      1 <0>       0.1900
   38 H38      -0.0619    -2.2383    -4.7209 H      1 <0>       0.1200
   39 H39       1.6255    -1.8832    -5.1623 H      1 <0>       0.1300
   40 H40       1.7189    -6.7883    -5.1226 H      1 <0>       0.1900
   41 H41       0.1280    -4.9960    -9.8280 H      1 <0>       0.4200
   42 H42      -0.8379    -6.9097   -11.4597 H      1 <0>       0.1200
   43 H43       0.9363    -5.2676   -11.9366 H      1 <0>       0.1200
   44 H44       2.1599    -6.5614   -11.9300 H      1 <0>       0.1000
   45 H45      -0.2108    -6.3618   -13.8426 H      1 <0>       0.1400
   46 H46       1.4816    -5.9890   -14.2462 H      1 <0>       0.1400
   47 H47      -0.8790    -8.5646   -13.3643 H      1 <0>       0.1300
   48 H48       0.2948    -9.9015   -13.3967 H      1 <0>       0.1400
   49 H49       1.4362    -8.9473   -11.4119 H      1 <0>       0.1000
   50 H50      -0.2795    -9.2758   -11.0663 H      1 <0>       0.1200
@<TRIPOS>BOND
   1    1    2 1
   2    1   28 1
   3    1   29 1
   4    1   30 1
   5    2    3 1
   6    2    4 1
   7    2    5 1
   8    3   31 1
   9    3   32 1
  10    3   33 1
  11    4   34 1
  12    4   35 1
  13    4   36 1
  14    5   27 1
  15    5    6 2
  16    6    7 1
  17    6   37 1
  18    7    8 2
  19    8    9 1
  20    8   27 1
  21    9   10 1
  22    9   38 1
  23    9   39 1
  24   10   11 1
  25   11   26 1
  26   11   12 2
  27   12   13 1
  28   12   40 1
  29   13   14 2
  30   14   15 1
  31   14   26 1
  32   15   16 am
  33   15   41 1
  34   16   17 2
  35   16   18 1
  36   18   25 1
  37   18   19 1
  38   18   42 1
  39   19   20 1
  40   19   43 1
  41   19   44 1
  42   20   21 1
  43   20   45 1
  44   20   46 1
  45   21   22 1
  46   21   23 1
  47   21   24 1
  48   24   25 1
  49   24   47 1
  50   24   48 1
  51   25   49 1
  52   25   50 1


@<TRIPOS>MOLECULE
CC1=C(N(N=C1C(=O)NN2CCCCC2)C3=C(C=C(C=C3)Cl)Cl)C4=CC=C(C=C4)Cl
  51   54    0    0    0
SMALL
USER_CHARGES
NO_NAME
@<TRIPOS>ATOM
    1 C1        0.6872     1.4464    -0.4266 C.3    1 <0>      -0.0900
    2 C2        0.3305     0.0027    -0.1826 C.2    1 <0>      -0.1000
    3 C3        0.2323    -0.9943    -1.1127 C.2    1 <0>       0.0500
    4 C4        0.4574    -0.8671    -2.5696 C.ar   1 <0>      -0.0200
    5 C5       -0.2330     0.0982    -3.3031 C.ar   1 <0>      -0.0800
    6 C6       -0.0191     0.2121    -4.6612 C.ar   1 <0>      -0.1100
    7 C7        0.8786    -0.6292    -5.2964 C.ar   1 <0>      -0.0200
    8 Cl8       1.1431    -0.4797    -7.0056 Cl     1 <0>      -0.0600
    9 C9        1.5665    -1.5890    -4.5734 C.ar   1 <0>      -0.1000
   10 C10       1.3650    -1.7083    -3.2139 C.ar   1 <0>      -0.0800
   11 N11      -0.1137    -2.1308    -0.4379 N.pl3  1 <0>      -0.2300
   12 C12      -0.3157    -3.3855    -1.0268 C.ar   1 <0>       0.1400
   13 C13      -1.1221    -3.5046    -2.1506 C.ar   1 <0>      -0.0800
   14 C14      -1.3198    -4.7430    -2.7295 C.ar   1 <0>      -0.0900
   15 C15      -0.7156    -5.8651    -2.1904 C.ar   1 <0>      -0.0100
   16 Cl16     -0.9671    -7.4198    -2.9207 Cl     1 <0>      -0.0400
   17 C17       0.0893    -5.7502    -1.0703 C.ar   1 <0>      -0.0900
   18 C18       0.2953    -4.5130    -0.4904 C.ar   1 <0>      -0.0100
   19 Cl19      1.3050    -4.3690     0.9145 Cl     1 <0>      -0.0200
   20 N20      -0.2263    -1.8783     0.8165 N.2    1 <0>      -0.2300
   21 C21       0.0330    -0.6071     1.0556 C.2    1 <0>       0.0000
   22 C22       0.0071     0.0579     2.3742 C.2    1 <0>       0.6200
   23 O23       0.2673     1.2422     2.4629 O.2    1 <0>      -0.5000
   24 N24      -0.3049    -0.6482     3.4790 N.am   1 <0>      -0.5700
   25 N25      -0.4249    -0.0146     4.6832 N.3    1 <0>      -0.2900
   26 C26       0.6669    -0.3945     5.5888 C.3    1 <0>       0.0400
   27 C27       0.5834     0.4401     6.8689 C.3    1 <0>      -0.1100
   28 C28      -0.7706     0.1990     7.5421 C.3    1 <0>      -0.1300
   29 C29      -1.8904     0.5566     6.5610 C.3    1 <0>      -0.1100
   30 C30      -1.7353    -0.2814     5.2899 C.3    1 <0>       0.0400
   31 H31       1.7679     1.5705    -0.3564 H      1 <0>       0.0700
   32 H32       0.3516     1.7406    -1.4210 H      1 <0>       0.0700
   33 H33       0.2003     2.0724     0.3212 H      1 <0>       0.0900
   34 H34      -0.9337     0.7547    -2.8088 H      1 <0>       0.1400
   35 H35      -0.5532     0.9588    -5.2301 H      1 <0>       0.1400
   36 H36       2.2653    -2.2428    -5.0741 H      1 <0>       0.1400
   37 H37       1.9021    -2.4573    -2.6510 H      1 <0>       0.1300
   38 H38      -1.5947    -2.6296    -2.5718 H      1 <0>       0.1500
   39 H39      -1.9470    -4.8358    -3.6038 H      1 <0>       0.1600
   40 H40       0.5597    -6.6276    -0.6516 H      1 <0>       0.1600
   41 H41      -0.4442    -1.6062     3.4190 H      1 <0>       0.3900
   42 H42       0.5802    -1.4520     5.8385 H      1 <0>       0.0400
   43 H43       1.6240    -0.2143     5.0995 H      1 <0>       0.0800
   44 H44       1.3845     0.1469     7.5473 H      1 <0>       0.0700
   45 H45       0.6838     1.4969     6.6214 H      1 <0>       0.0800
   46 H46      -0.8552    -0.8503     7.8248 H      1 <0>       0.0600
   47 H47      -0.8517     0.8244     8.4312 H      1 <0>       0.0700
   48 H48      -2.8568     0.3467     7.0196 H      1 <0>       0.0700
   49 H49      -1.8290     1.6152     6.3088 H      1 <0>       0.0800
   50 H50      -2.5228    -0.0189     4.5835 H      1 <0>       0.0800
   51 H51      -1.8106    -1.3394     5.5410 H      1 <0>       0.0400
@<TRIPOS>BOND
   1    1    2 1
   2    1   31 1
   3    1   32 1
   4    1   33 1
   5    2   21 1
   6    2    3 2
   7    3    4 1
   8    3   11 1
   9    4   10 ar
  10    4    5 ar
  11    5    6 ar
  12    5   34 1
  13    6    7 ar
  14    6   35 1
  15    7    8 1
  16    7    9 ar
  17    9   10 ar
  18    9   36 1
  19   10   37 1
  20   11   12 1
  21   11   20 1
  22   12   18 ar
  23   12   13 ar
  24   13   14 ar
  25   13   38 1
  26   14   15 ar
  27   14   39 1
  28   15   16 1
  29   15   17 ar
  30   17   18 ar
  31   17   40 1
  32   18   19 1
  33   20   21 2
  34   21   22 1
  35   22   23 2
  36   22   24 am
  37   24   25 1
  38   24   41 1
  39   25   30 1
  40   25   26 1
  41   26   27 1
  42   26   42 1
  43   26   43 1
  44   27   28 1
  45   27   44 1
  46   27   45 1
  47   28   29 1
  48   28   46 1
  49   28   47 1
  50   29   30 1
  51   29   48 1
  52   29   49 1
  53   30   50 1
  54   30   51 1


@<TRIPOS>MOLECULE
CN1C2C3=C(CCN2C(=O)C4=CC=CC=C41)C5=CC=CC=C5N3
  40   44    0    0    0
SMALL
USER_CHARGES
NO_NAME
@<TRIPOS>ATOM
    1 C1       -0.0178     1.4608     0.0101 C.3    1 <0>       0.0800
    2 N2        0.0021    -0.0041     0.0020 N.pl3  1 <0>      -0.6200
    3 C3        0.0049    -0.6499    -1.2197 C.ar   1 <0>       0.2500
    4 C4       -0.0790     0.0663    -2.4063 C.ar   1 <0>      -0.2000
    5 C5       -0.0930    -0.6014    -3.6145 C.ar   1 <0>      -0.0400
    6 C6       -0.0245    -1.9847    -3.6564 C.ar   1 <0>      -0.1800
    7 C7        0.0664    -2.7132    -2.4887 C.ar   1 <0>      -0.0100
    8 C8        0.0895    -2.0510    -1.2628 C.ar   1 <0>      -0.2100
    9 C9        0.2149    -2.7928     0.0024 C.2    1 <0>       0.5800
   10 O10       0.2871    -4.0066    -0.0108 O.2    1 <0>      -0.5300
   11 N11       0.2502    -2.1319     1.1724 N.am   1 <0>      -0.6100
   12 C12       0.5535    -2.8814     2.4050 C.3    1 <0>       0.1100
   13 C13       1.8807    -2.3727     2.9803 C.3    1 <0>      -0.0700
   14 C14       1.8853    -0.8660     2.9538 C.2    1 <0>      -0.1300
   15 C15       1.0639    -0.1088     2.1924 C.2    1 <0>       0.0200
   16 N16       1.3301     1.2182     2.3971 N.pl3  1 <0>      -0.5800
   17 C17       2.3367     1.3518     3.3099 C.ar   1 <0>       0.1100
   18 C18       2.9645     2.4712     3.8513 C.ar   1 <0>      -0.1300
   19 C19       3.9697     2.2409     4.7749 C.ar   1 <0>      -0.0900
   20 C20       4.3468     0.9635     5.1540 C.ar   1 <0>      -0.1500
   21 C21       3.7463    -0.1582     4.6369 C.ar   1 <0>      -0.0600
   22 C22       2.7278     0.0452     3.7011 C.ar   1 <0>      -0.1100
   23 C23       0.0235    -0.6944     1.2743 C.3    1 <0>       0.4700
   24 H24      -0.9522    -0.5465     1.7370 H      1 <0>       0.0800
   25 H25       1.0048     1.8381     0.0023 H      1 <0>       0.0600
   26 H26      -0.5450     1.8219    -0.8730 H      1 <0>       0.0900
   27 H27      -0.5280     1.8123     0.9069 H      1 <0>       0.0700
   28 H28      -0.1337     1.1447    -2.3840 H      1 <0>       0.1300
   29 H29      -0.1582    -0.0406    -4.5352 H      1 <0>       0.1300
   30 H30      -0.0429    -2.4950    -4.6080 H      1 <0>       0.1300
   31 H31       0.1192    -3.7914    -2.5244 H      1 <0>       0.1400
   32 H32      -0.2432    -2.7259     3.1324 H      1 <0>       0.0800
   33 H33       0.6384    -3.9435     2.1751 H      1 <0>       0.1100
   34 H34       1.9890    -2.7194     4.0081 H      1 <0>       0.0900
   35 H35       2.7073    -2.7503     2.3784 H      1 <0>       0.0800
   36 H36       0.8727     1.9531     1.9593 H      1 <0>       0.4100
   37 H37       2.6805     3.4727     3.5635 H      1 <0>       0.1300
   38 H38       4.4775     3.0865     5.2148 H      1 <0>       0.1200
   39 H39       5.1380     0.8455     5.8796 H      1 <0>       0.1200
   40 H40       4.0472    -1.1507     4.9384 H      1 <0>       0.1300
@<TRIPOS>BOND
   1    1    2 1
   2    1   25 1
   3    1   26 1
   4    1   27 1
   5    2   23 1
   6    2    3 1
   7    3    8 ar
   8    3    4 ar
   9    4    5 ar
  10    4   28 1
  11    5    6 ar
  12    5   29 1
  13    6    7 ar
  14    6   30 1
  15    7    8 ar
  16    7   31 1
  17    8    9 1
  18    9   10 2
  19    9   11 am
  20   11   23 1
  21   11   12 1
  22   12   13 1
  23   12   32 1
  24   12   33 1
  25   13   14 1
  26   13   34 1
  27   13   35 1
  28   14   22 1
  29   14   15 2
  30   15   16 1
  31   15   23 1
  32   16   17 1
  33   16   36 1
  34   17   22 ar
  35   17   18 ar
  36   18   19 ar
  37   18   37 1
  38   19   20 ar
  39   19   38 1
  40   20   21 ar
  41   20   39 1
  42   21   22 ar
  43   21   40 1
  44   23   24 1


@<TRIPOS>MOLECULE
CCC1=CN=C(C=C1)CCOC2=CC=C(C=C2)CC3C(=O)NC(=O)S3
  44   46    0    0    0
SMALL
USER_CHARGES
NO_NAME
@<TRIPOS>ATOM
    1 C1       -0.0187     1.5258     0.0104 C.3    1 <0>      -0.1500
    2 C2        0.0021    -0.0041     0.0020 C.3    1 <0>      -0.0800
    3 C3        0.7074    -0.4901    -1.2379 C.ar   1 <0>      -0.1400
    4 C4       -0.0040    -0.7218    -2.4049 C.ar   1 <0>      -0.0700
    5 C5        0.6868    -1.1681    -3.5214 C.ar   1 <0>      -0.1600
    6 C6        2.0517    -1.3655    -3.4343 C.ar   1 <0>       0.1300
    7 C7        2.8127    -1.8498    -4.6415 C.3    1 <0>      -0.0700
    8 C8        3.9559    -0.8799    -4.9467 C.3    1 <0>       0.0700
    9 O9        4.6775    -1.3391    -6.0914 O.3    1 <0>      -0.3200
   10 C10       5.7325    -0.5855    -6.4988 C.ar   1 <0>       0.1200
   11 C11       6.0699     0.5690    -5.8075 C.ar   1 <0>      -0.2100
   12 C12       7.1431     1.3330    -6.2234 C.ar   1 <0>      -0.0500
   13 C13       7.8805     0.9482    -7.3279 C.ar   1 <0>      -0.1100
   14 C14       9.0504     1.7838    -7.7796 C.3    1 <0>      -0.0400
   15 C15      10.3226     1.3003    -7.0805 C.3    1 <0>      -0.0900
   16 H16      10.4661     0.2317    -7.2402 H      1 <0>       0.1100
   17 S17      10.2647     1.6843    -5.2976 S.3    1 <0>      -0.3900
   18 C18      11.6908     2.7364    -5.3431 C.2    1 <0>       0.5800
   19 O19      12.1779     3.3259    -4.3979 O.2    1 <0>      -0.5100
   20 N20      12.1335     2.7648    -6.6019 N.pl3  1 <0>      -0.7200
   21 C21      11.5268     2.0798    -7.5619 C.2    1 <0>       0.5200
   22 O22      11.9013     2.0821    -8.7150 O.2    1 <0>      -0.5400
   23 C23       7.5465    -0.2023    -8.0183 C.ar   1 <0>      -0.0800
   24 C24       6.4775    -0.9726    -7.6033 C.ar   1 <0>      -0.1500
   25 N25       2.6962    -1.1347    -2.3070 N.ar   1 <0>      -0.4800
   26 C26       2.0729    -0.7049    -1.2275 C.ar   1 <0>       0.1100
   27 H27       1.0039     1.9031     0.0027 H      1 <0>       0.0600
   28 H28      -0.5459     1.8868    -0.8726 H      1 <0>       0.0600
   29 H29      -0.5289     1.8773     0.9072 H      1 <0>       0.0600
   30 H30       0.5293    -0.3651     0.8851 H      1 <0>       0.0800
   31 H31      -1.0205    -0.3814     0.0098 H      1 <0>       0.0700
   32 H32      -1.0709    -0.5590    -2.4435 H      1 <0>       0.1300
   33 H33       0.1647    -1.3592    -4.4472 H      1 <0>       0.1400
   34 H34       3.2206    -2.8405    -4.4406 H      1 <0>       0.0900
   35 H35       2.1408    -1.9005    -5.4983 H      1 <0>       0.0900
   36 H36       3.5480     0.1108    -5.1476 H      1 <0>       0.0600
   37 H37       4.6278    -0.8292    -4.0899 H      1 <0>       0.0700
   38 H38       5.4938     0.8704    -4.9452 H      1 <0>       0.1200
   39 H39       7.4061     2.2319    -5.6855 H      1 <0>       0.1300
   40 H40       9.1701     1.6880    -8.8588 H      1 <0>       0.0900
   41 H41       8.8706     2.8283    -7.5253 H      1 <0>       0.0800
   42 H42       8.1243    -0.5010    -8.8805 H      1 <0>       0.1300
   43 H43       6.2171    -1.8711    -8.1429 H      1 <0>       0.1300
   44 H44       2.6343    -0.5269    -0.3223 H      1 <0>       0.1600
@<TRIPOS>BOND
   1    1    2 1
   2    1   27 1
   3    1   28 1
   4    1   29 1
   5    2    3 1
   6    2   30 1
   7    2   31 1
   8    3   26 ar
   9    3    4 ar
  10    4    5 ar
  11    4   32 1
  12    5    6 ar
  13    5   33 1
  14    6    7 1
  15    6   25 ar
  16    7    8 1
  17    7   34 1
  18    7   35 1
  19    8    9 1
  20    8   36 1
  21    8   37 1
  22    9   10 1
  23   10   24 ar
  24   10   11 ar
  25   11   12 ar
  26   11   38 1
  27   12   13 ar
  28   12   39 1
  29   13   14 1
  30   13   23 ar
  31   14   15 1
  32   14   40 1
  33   14   41 1
  34   15   16 1
  35   15   21 1
  36   15   17 1
  37   17   18 1
  38   18   19 2
  39   18   20 1
  40   20   21 1
  41   21   22 2
  42   23   24 ar
  43   23   42 1
  44   24   43 1
  45   25   26 ar
  46   26   44 1


@<TRIPOS>MOLECULE
CCCCCC=CC=C1C(C=CC1=O)CC=CCCCC(=O)O
  50   50    0    0    0
SMALL
USER_CHARGES
NO_NAME
@<TRIPOS>ATOM
    1 C1        0.9601     1.3661     0.6123 C.3    1 <0>      -0.1500
    2 C2        0.9867    -0.1628     0.5600 C.3    1 <0>      -0.1300
    3 C3        1.4515    -0.6177    -0.8249 C.3    1 <0>      -0.1200
    4 C4        1.4780    -2.1466    -0.8772 C.3    1 <0>      -0.1200
    5 C5        1.9429    -2.6015    -2.2621 C.3    1 <0>      -0.1000
    6 C6        1.9690    -4.1074    -2.3137 C.2    1 <0>      -0.1200
    7 C7        1.2918    -4.7547    -3.2650 C.2    1 <0>      -0.1600
    8 C8        1.3172    -6.2159    -3.3151 C.2    1 <0>      -0.0100
    9 C9        0.6304    -6.8723    -4.2798 C.2    1 <0>      -0.2200
   10 C10      -0.1810    -6.2874    -5.3520 C.2    1 <0>       0.4100
   11 O11      -0.3645    -5.0983    -5.5426 O.2    1 <0>      -0.4500
   12 C12      -0.7332    -7.3845    -6.1561 C.2    1 <0>      -0.2400
   13 C13      -0.3488    -8.5636    -5.6929 C.2    1 <0>      -0.0600
   14 C14       0.5392    -8.3689    -4.4892 C.3    1 <0>      -0.0300
   15 H15       0.0924    -8.8381    -3.6126 H      1 <0>       0.1000
   16 C16       1.9250    -8.9605    -4.7547 C.3    1 <0>      -0.0800
   17 C17       1.8159   -10.4581    -4.8825 C.2    1 <0>      -0.1800
   18 C18       2.3179   -11.0644    -5.9296 C.2    1 <0>      -0.1300
   19 C19       3.1607   -10.2949    -6.9138 C.3    1 <0>      -0.1100
   20 C20       4.5042   -11.0033    -7.0982 C.3    1 <0>      -0.0900
   21 C21       5.3598   -10.2221    -8.0975 C.3    1 <0>      -0.1800
   22 C22       6.6831   -10.9199    -8.2792 C.2    1 <0>       0.4900
   23 O23       6.9199   -11.9469    -7.6662 O.co2  1 <0>      -0.7000
   24 O24       7.5168   -10.4574    -9.0391 O.co2  1 <0>      -0.7100
   25 H25       1.9604     1.7536     0.4193 H      1 <0>       0.0500
   26 H26       0.2720     1.7436    -0.1441 H      1 <0>       0.0500
   27 H27       0.6290     1.6901     1.5989 H      1 <0>       0.0500
   28 H28       1.6747    -0.5404     1.3163 H      1 <0>       0.0600
   29 H29      -0.0137    -0.5504     0.7529 H      1 <0>       0.0600
   30 H30       0.7634    -0.2402    -1.5813 H      1 <0>       0.0600
   31 H31       2.4518    -0.2301    -1.0179 H      1 <0>       0.0600
   32 H32       2.1661    -2.5241    -0.1209 H      1 <0>       0.0600
   33 H33       0.4777    -2.5342    -0.6843 H      1 <0>       0.0600
   34 H34       1.2548    -2.2240    -3.0185 H      1 <0>       0.0700
   35 H35       2.9432    -2.2139    -2.4551 H      1 <0>       0.0800
   36 H36       2.5356    -4.6630    -1.5811 H      1 <0>       0.1100
   37 H37       0.7253    -4.1990    -3.9976 H      1 <0>       0.1400
   38 H38       1.8837    -6.7715    -2.5825 H      1 <0>       0.1300
   39 H39      -1.3719    -7.2472    -7.0161 H      1 <0>       0.1400
   40 H40      -0.6249    -9.5186    -6.1150 H      1 <0>       0.1500
   41 H41       2.3263    -8.5452    -5.6791 H      1 <0>       0.0800
   42 H42       2.5900    -8.7139    -3.9269 H      1 <0>       0.0700
   43 H43       1.3238   -11.0314    -4.1108 H      1 <0>       0.1100
   44 H44       2.1279   -12.1158    -6.0875 H      1 <0>       0.1100
   45 H45       2.6433   -10.2420    -7.8717 H      1 <0>       0.0600
   46 H46       3.3304    -9.2865    -6.5364 H      1 <0>       0.0700
   47 H47       5.0215   -11.0562    -6.1403 H      1 <0>       0.0600
   48 H48       4.3344   -12.0117    -7.4757 H      1 <0>       0.0600
   49 H49       4.8424   -10.1692    -9.0554 H      1 <0>       0.0600
   50 H50       5.5295    -9.2137    -7.7201 H      1 <0>       0.0500
@<TRIPOS>BOND
   1    1    2 1
   2    1   25 1
   3    1   26 1
   4    1   27 1
   5    2    3 1
   6    2   28 1
   7    2   29 1
   8    3    4 1
   9    3   30 1
  10    3   31 1
  11    4    5 1
  12    4   32 1
  13    4   33 1
  14    5    6 1
  15    5   34 1
  16    5   35 1
  17    6    7 2
  18    6   36 1
  19    7    8 1
  20    7   37 1
  21    8    9 2
  22    8   38 1
  23    9   14 1
  24    9   10 1
  25   10   11 2
  26   10   12 1
  27   12   13 2
  28   12   39 1
  29   13   14 1
  30   13   40 1
  31   14   15 1
  32   14   16 1
  33   16   17 1
  34   16   41 1
  35   16   42 1
  36   17   18 2
  37   17   43 1
  38   18   19 1
  39   18   44 1
  40   19   20 1
  41   19   45 1
  42   19   46 1
  43   20   21 1
  44   20   47 1
  45   20   48 1
  46   21   22 1
  47   21   49 1
  48   21   50 1
  49   22   23 ar
  50   22   24 ar


@<TRIPOS>MOLECULE
CC1=CC=C(C=C1)C(=O)NC2C(C(OC(C2OP(=O)(O)OCC3=CC=CC=C3)SC)CO)O
60    62    1     0     0
SMALL
USER_CHARGES
@<TRIPOS>ATOM
1      C1     -0.0225    1.8097    0.0120 C.3      1 ZINC000014976476   -0.1600
2      S2      0.0021   -0.0041    0.0020 S.3      1 ZINC000014976476   -0.1100
3      C3     -1.7597   -0.4361    0.0165 C.3      1 ZINC000014976476    0.0900
4      H4     -2.2611    0.0542   -0.8179 H        1 ZINC000014976476    0.0800
5      O5     -2.3463   -0.0037    1.2457 O.3      1 ZINC000014976476   -0.3400
6      C6     -3.7457   -0.2734    1.3510 C.3      1 ZINC000014976476    0.0500
7      H7     -4.2732    0.2190    0.5341 H        1 ZINC000014976476    0.0800
8      C8     -4.2681    0.2559    2.6881 C.3      1 ZINC000014976476    0.0900
9      O9     -4.1547    1.6802    2.7137 O.3      1 ZINC000014976476   -0.5600
10     C10    -3.9801   -1.7842    1.2731 C.3      1 ZINC000014976476    0.0700
11     H11    -5.0501   -1.9892    1.3088 H        1 ZINC000014976476    0.0800
12     O12    -3.3340   -2.4252    2.3748 O.3      1 ZINC000014976476   -0.5400
13     C13    -3.4008   -2.3157   -0.0416 C.3      1 ZINC000014976476    0.1500
14     H14    -3.9282   -1.8638   -0.8816 H        1 ZINC000014976476    0.1100
15     N15    -3.5553   -3.7717   -0.0920 N.am     1 ZINC000014976476   -0.7000
16     C16    -4.7087   -4.3121   -0.5328 C.2      1 ZINC000014976476    0.5600
17     O17    -5.6207   -3.5914   -0.8884 O.2      1 ZINC000014976476   -0.5600
18     C18    -4.8647   -5.7814   -0.5837 C.ar     1 ZINC000014976476   -0.1400
19     C19    -3.8215   -6.6117   -0.1706 C.ar     1 ZINC000014976476   -0.0700
20     C20    -3.9737   -7.9820   -0.2203 C.ar     1 ZINC000014976476   -0.1300
21     C21    -5.1570   -8.5335   -0.6786 C.ar     1 ZINC000014976476   -0.0700
22     C22    -5.3159  -10.0312   -0.7305 C.3      1 ZINC000014976476   -0.1200
23     C23    -6.1950   -7.7161   -1.0891 C.ar     1 ZINC000014976476   -0.1400
24     C24    -6.0578   -6.3442   -1.0396 C.ar     1 ZINC000014976476   -0.0600
25     C25    -1.9143   -1.9535   -0.1154 C.3      1 ZINC000014976476    0.1600
26     H26    -1.3787   -2.4459    0.6963 H        1 ZINC000014976476    0.0900
27     O27    -1.3800   -2.3823   -1.3694 O.3      1 ZINC000014976476   -0.7400
28     P28    -0.1711   -3.4385   -1.4924 P.3      1 ZINC000014976476    2.2200
29     O29    -0.5359   -4.7302   -0.7273 O.co2    1 ZINC000014976476   -1.1000
30     O30     1.1115   -2.8260   -0.8867 O.co2    1 ZINC000014976476   -1.0700
31     O31     0.0815   -3.7868   -3.0439 O.3      1 ZINC000014976476   -0.7600
32     C32     1.0200   -4.7735   -3.4772 C.3      1 ZINC000014976476    0.1700
33     C33     1.0097   -4.8498   -4.9822 C.ar     1 ZINC000014976476   -0.0800
34     C34     0.1450   -5.7162   -5.6245 C.ar     1 ZINC000014976476   -0.1000
35     C35     0.1355   -5.7862   -7.0050 C.ar     1 ZINC000014976476   -0.1300
36     C36     0.9905   -4.9895   -7.7433 C.ar     1 ZINC000014976476   -0.1200
37     C37     1.8546   -4.1224   -7.1012 C.ar     1 ZINC000014976476   -0.1300
38     C38     1.8610   -4.0493   -5.7208 C.ar     1 ZINC000014976476   -0.1000
39     H39     1.0001    2.1870    0.0043 H        1 ZINC000014976476    0.1000
40     H40    -0.5497    2.1708   -0.8711 H        1 ZINC000014976476    0.0700
41     H41    -0.5327    2.1613    0.9088 H        1 ZINC000014976476    0.0800
42     H42    -5.3138   -0.0275    2.8075 H        1 ZINC000014976476    0.0600
43     H43    -3.6811   -0.1700    3.5018 H        1 ZINC000014976476    0.0600
44     H44    -4.4682    2.0850    3.5340 H        1 ZINC000014976476    0.3800
45     H45    -3.6498   -2.1323    3.2405 H        1 ZINC000014976476    0.3700
46     H46    -2.8276   -4.3468    0.1918 H        1 ZINC000014976476    0.4200
47     H47    -2.8972   -6.1824    0.1867 H        1 ZINC000014976476    0.1400
48     H48    -3.1674   -8.6256    0.0991 H        1 ZINC000014976476    0.1300
49     H49    -5.7281  -10.3858    0.2142 H        1 ZINC000014976476    0.0700
50     H50    -5.9910  -10.2969   -1.5440 H        1 ZINC000014976476    0.0700
51     H51    -4.3437  -10.4941   -0.8993 H        1 ZINC000014976476    0.0700
52     H52    -7.1162   -8.1529   -1.4456 H        1 ZINC000014976476    0.1200
53     H53    -6.8689   -5.7072   -1.3600 H        1 ZINC000014976476    0.1300
54     H54     2.0181   -4.5010   -3.1341 H        1 ZINC000014976476    0.0600
55     H55     0.7453   -5.7433   -3.0623 H        1 ZINC000014976476    0.0600
56     H56    -0.5230   -6.3387   -5.0476 H        1 ZINC000014976476    0.1200
57     H57    -0.5396   -6.4636   -7.5067 H        1 ZINC000014976476    0.1200
58     H58     0.9836   -5.0447   -8.8219 H        1 ZINC000014976476    0.1200
59     H59     2.5228   -3.5002   -7.6780 H        1 ZINC000014976476    0.1200
60     H60     2.5361   -3.3719   -5.2190 H        1 ZINC000014976476    0.1200
@<TRIPOS>BOND
1     1     2     1
2     1     39    1
3     1     40    1
4     1     41    1
5     2     3     1
6     3     4     1
7     3     25    1
8     3     5     1
9     5     6     1
10    6     7     1
11    6     8     1
12    6     10    1
13    8     9     1
14    8     42    1
15    8     43    1
16    9     44    1
17    10    11    1
18    10    12    1
19    10    13    1
20    12    45    1
21    13    14    1
22    13    15    1
23    13    25    1
24    15    16    am
25    15    46    1
26    16    17    2
27    16    18    1
28    18    24    ar
29    18    19    ar
30    19    20    ar
31    19    47    1
32    20    21    ar
33    20    48    1
34    21    22    1
35    21    23    ar
36    22    49    1
37    22    50    1
38    22    51    1
39    23    24    ar
40    23    52    1
41    24    53    1
42    25    26    1
43    25    27    1
44    27    28    1
45    28    29    ar
46    28    30    ar
47    28    31    1
48    31    32    1
49    32    33    1
50    32    54    1
51    32    55    1
52    33    38    ar
53    33    34    ar
54    34    35    ar
55    34    56    1
56    35    36    ar
57    35    57    1
58    36    37    ar
59    36    58    1
60    37    38    ar
61    37    59    1
62    38    60    1
@<TRIPOS>SUBSTRUCTURE
1   ZINC000014976476 1     RESIDUE    1   A     ZIN   1


@<TRIPOS>MOLECULE
CC(C=C(C)C=CC(=O)NO)C(=O)C1=CC=C(C=C1)N(C)C
  44   44    0    0    0
SMALL
USER_CHARGES
NO_NAME
@<TRIPOS>ATOM
    1 C1        0.5666     1.9153    -0.9484 C.3    1 <0>      -0.1000
    2 C2        0.2623     0.5420    -0.4076 C.2    1 <0>      -0.0900
    3 C3        0.2840     0.3233     0.9082 C.2    1 <0>      -0.1300
    4 C4        0.4917     1.4733     1.8598 C.3    1 <0>      -0.1000
    5 H5        0.6973     2.3813     1.2930 H      1 <0>       0.1000
    6 C6        1.6757     1.1669     2.7792 C.3    1 <0>      -0.1400
    7 C7       -0.7509     1.6695     2.6895 C.2    1 <0>       0.4200
    8 O8       -1.4611     0.7216     2.9518 O.2    1 <0>      -0.4600
    9 C9       -1.1019     3.0073     3.1802 C.ar   1 <0>      -0.2300
   10 C10      -0.2862     4.1044     2.8737 C.ar   1 <0>      -0.0200
   11 C11      -0.6164     5.3474     3.3324 C.ar   1 <0>      -0.2100
   12 C12      -1.7625     5.5256     4.1041 C.ar   1 <0>       0.2500
   13 N13      -2.0947     6.7916     4.5685 N.pl3  1 <0>      -0.6300
   14 C14      -1.2403     7.9374     4.2468 C.3    1 <0>       0.0900
   15 C15      -3.2995     6.9814     5.3802 C.3    1 <0>       0.0900
   16 C16      -2.5767     4.4375     4.4108 C.ar   1 <0>      -0.2100
   17 C17      -2.2568     3.1920     3.9518 C.ar   1 <0>      -0.0100
   18 C18      -0.0571    -0.5517    -1.3260 C.2    1 <0>      -0.0100
   19 C19      -1.1862    -0.5038    -2.0675 C.2    1 <0>      -0.2100
   20 C20      -2.1553     0.5711    -1.8555 C.2    1 <0>       0.5500
   21 O21      -1.9991     1.3598    -0.9417 O.2    1 <0>      -0.5000
   22 N22      -3.2211     0.6882    -2.6720 N.am   1 <0>      -0.6000
   23 O23      -4.1592     1.7288    -2.4668 O.3    1 <0>      -0.3200
   24 H24       1.5627     2.2198    -0.6271 H      1 <0>       0.0600
   25 H25       0.5267     1.8941    -2.0374 H      1 <0>       0.0500
   26 H26      -0.1696     2.6255    -0.5717 H      1 <0>       0.0800
   27 H27       0.1527    -0.6778     1.2915 H      1 <0>       0.1200
   28 H28       2.5745     1.0250     2.1791 H      1 <0>       0.0700
   29 H29       1.8260     1.9987     3.4675 H      1 <0>       0.0600
   30 H30       1.4701     0.2589     3.3460 H      1 <0>       0.0600
   31 H31       0.6027     3.9671     2.2758 H      1 <0>       0.1300
   32 H32       0.0120     6.1936     3.0969 H      1 <0>       0.1300
   33 H33      -1.1880     8.0591     3.1649 H      1 <0>       0.0600
   34 H34      -1.6582     8.8392     4.6941 H      1 <0>       0.0800
   35 H35      -0.2390     7.7662     4.6420 H      1 <0>       0.0600
   36 H36      -3.0503     6.8593     6.4343 H      1 <0>       0.0500
   37 H37      -3.6954     7.9832     5.2140 H      1 <0>       0.0700
   38 H38      -4.0490     6.2428     5.0961 H      1 <0>       0.0700
   39 H39      -3.4643     4.5800     5.0094 H      1 <0>       0.1300
   40 H40      -2.8885     2.3490     4.1901 H      1 <0>       0.1300
   41 H41       0.6094    -1.3973    -1.4112 H      1 <0>       0.1400
   42 H42      -1.3729    -1.2591    -2.8165 H      1 <0>       0.1400
   43 H43      -3.3456     0.0597    -3.4003 H      1 <0>       0.4100
   44 H44      -4.8886     1.7317    -3.1017 H      1 <0>       0.3900
@<TRIPOS>BOND
   1    1    2 1
   2    1   24 1
   3    1   25 1
   4    1   26 1
   5    2    3 2
   6    2   18 1
   7    3    4 1
   8    3   27 1
   9    4    5 1
  10    4    6 1
  11    4    7 1
  12    6   28 1
  13    6   29 1
  14    6   30 1
  15    7    8 2
  16    7    9 1
  17    9   17 ar
  18    9   10 ar
  19   10   11 ar
  20   10   31 1
  21   11   12 ar
  22   11   32 1
  23   12   13 1
  24   12   16 ar
  25   13   14 1
  26   13   15 1
  27   14   33 1
  28   14   34 1
  29   14   35 1
  30   15   36 1
  31   15   37 1
  32   15   38 1
  33   16   17 ar
  34   16   39 1
  35   17   40 1
  36   18   19 2
  37   18   41 1
  38   19   20 1
  39   19   42 1
  40   20   21 2
  41   20   22 am
  42   22   23 1
  43   22   43 1
  44   23   44 1


@<TRIPOS>MOLECULE
CN1CCCN(CC1)C2=NC3=CC(=C(C=C3C(=N2)NC4CCN(CC4)CC5=CC=CC=C5)OC)OC
76    80    1     0     0
SMALL
USER_CHARGES
@<TRIPOS>ATOM
1      C1     -0.0173    1.4248    0.0099 C.3      1 ZINC000036382102    0.0200
2      O2      0.0021   -0.0041    0.0020 O.3      1 ZINC000036382102   -0.2900
3      C3      0.6056   -0.6069   -1.0553 C.ar     1 ZINC000036382102    0.1800
4      C4      0.6514   -2.0058   -1.1224 C.ar     1 ZINC000036382102    0.1200
5      O5      0.0914   -2.7455   -0.1277 O.3      1 ZINC000036382102   -0.2900
6      C6      0.1703   -4.1668   -0.2530 C.3      1 ZINC000036382102    0.0200
7      C7      1.2517   -2.6349   -2.1758 C.ar     1 ZINC000036382102   -0.1500
8      C8      1.8286   -1.8749   -3.2005 C.ar     1 ZINC000036382102   -0.2000
9      C9      1.7866   -0.4603   -3.1393 C.ar     1 ZINC000036382102    0.2200
10     C10     1.1612    0.1636   -2.0533 C.ar     1 ZINC000036382102   -0.2000
11     N11     2.3459    0.2466   -4.1345 N.ar     1 ZINC000036382102   -0.5700
12     C12     2.9227   -0.3690   -5.1483 C.ar     1 ZINC000036382102    0.5300
13     N13     3.4880    0.3957   -6.1537 N.3      1 ZINC000036382102   -0.4600
14     C14     2.9209    0.0621   -7.4381 C.3      1 ZINC000036382102    0.0400
15     C15     3.9538    0.1058   -8.5820 C.3      1 ZINC000036382102   -0.1300
16     C16     4.8983    1.3179   -8.4643 C.3      1 ZINC000036382102   -0.0200
17     N17     4.1934    2.5132   -8.0671 N.4      1 ZINC000036382102   -0.3800
18     H18     3.2216    2.4384   -8.3283 H        1 ZINC000036382102    0.4200
19     C19     4.7940    3.6836   -8.7208 C.3      1 ZINC000036382102   -0.0500
20     C20     4.3066    2.6468   -6.6017 C.3      1 ZINC000036382102    0.0000
21     C21     3.3239    1.8444   -5.8763 C.3      1 ZINC000036382102    0.0300
22     N22     2.9839   -1.6942   -5.2443 N.ar     1 ZINC000036382102   -0.6000
23     C23     2.4616   -2.4797   -4.3137 C.ar     1 ZINC000036382102    0.5000
24     N24     2.5322   -3.8526   -4.4266 N.pl3    1 ZINC000036382102   -0.7000
25     C25     3.1908   -4.4593   -5.5861 C.3      1 ZINC000036382102    0.1500
26     C26     4.6965   -4.5598   -5.3253 C.3      1 ZINC000036382102   -0.1600
27     C27     5.3670   -5.2659   -6.5056 C.3      1 ZINC000036382102    0.0000
28     N28     4.8044   -6.6130   -6.6584 N.4      1 ZINC000036382102   -0.3800
29     H29     4.9226   -7.1254   -5.7972 H        1 ZINC000036382102    0.4200
30     C30     5.5037   -7.3140   -7.7435 C.3      1 ZINC000036382102    0.0500
31     C31     4.8477   -8.6493   -7.9837 C.ar     1 ZINC000036382102   -0.1700
32     C32     5.2776   -9.7653   -7.2903 C.ar     1 ZINC000036382102   -0.0900
33     C33     4.6759  -10.9901   -7.5106 C.ar     1 ZINC000036382102   -0.1100
34     C34     3.6440  -11.0990   -8.4239 C.ar     1 ZINC000036382102   -0.0800
35     C35     3.2135   -9.9829   -9.1166 C.ar     1 ZINC000036382102   -0.1100
36     C36     3.8123   -8.7572   -8.8932 C.ar     1 ZINC000036382102   -0.1000
37     C37     3.3750   -6.5224   -6.9797 C.3      1 ZINC000036382102   -0.0100
38     C38     2.6279   -5.8646   -5.8176 C.3      1 ZINC000036382102   -0.1600
39     H39     1.0053    1.8021    0.0021 H        1 ZINC000036382102    0.0600
40     H40    -0.5445    1.7859   -0.8732 H        1 ZINC000036382102    0.0600
41     H41    -0.5275    1.7763    0.9067 H        1 ZINC000036382102    0.1100
42     H42    -0.3133   -4.6346    0.6045 H        1 ZINC000036382102    0.1100
43     H43    -0.3318   -4.4793   -1.1686 H        1 ZINC000036382102    0.0600
44     H44     1.2165   -4.4707   -0.2905 H        1 ZINC000036382102    0.0600
45     H45     1.2816   -3.7136   -2.2179 H        1 ZINC000036382102    0.1400
46     H46     1.1219    1.2413   -1.9940 H        1 ZINC000036382102    0.1600
47     H47     2.4982   -0.9413   -7.3852 H        1 ZINC000036382102    0.1100
48     H48     2.1197    0.7665   -7.6617 H        1 ZINC000036382102    0.0600
49     H49     4.5467   -0.8086   -8.5589 H        1 ZINC000036382102    0.1100
50     H50     3.4258    0.1595   -9.5340 H        1 ZINC000036382102    0.1000
51     H51     5.6678    1.0974   -7.7244 H        1 ZINC000036382102    0.1300
52     H52     5.3750    1.4912   -9.4290 H        1 ZINC000036382102    0.1300
53     H53     4.7287    3.5688   -9.8028 H        1 ZINC000036382102    0.1300
54     H54     4.2586    4.5835   -8.4180 H        1 ZINC000036382102    0.1300
55     H55     5.8402    3.7670   -8.4267 H        1 ZINC000036382102    0.1200
56     H56     5.3062    2.3364   -6.2975 H        1 ZINC000036382102    0.1400
57     H57     4.1706    3.6945   -6.3336 H        1 ZINC000036382102    0.1400
58     H58     2.3222    2.1527   -6.1757 H        1 ZINC000036382102    0.0800
59     H59     3.4432    2.0175   -4.8068 H        1 ZINC000036382102    0.1500
60     H60     2.1457   -4.4164   -3.7383 H        1 ZINC000036382102    0.4200
61     H61     3.0128   -3.8454   -6.4690 H        1 ZINC000036382102    0.1100
62     H62     5.1143   -3.5592   -5.2147 H        1 ZINC000036382102    0.1200
63     H63     4.8706   -5.1305   -4.4131 H        1 ZINC000036382102    0.0900
64     H64     5.1925   -4.6943   -7.4172 H        1 ZINC000036382102    0.1300
65     H65     6.4392   -5.3390   -6.3233 H        1 ZINC000036382102    0.1400
66     H66     5.4543   -6.7161   -8.6535 H        1 ZINC000036382102    0.1400
67     H67     6.5465   -7.4663   -7.4649 H        1 ZINC000036382102    0.1400
68     H68     6.0839   -9.6803   -6.5767 H        1 ZINC000036382102    0.1300
69     H69     5.0123  -11.8621   -6.9694 H        1 ZINC000036382102    0.1400
70     H70     3.1743  -12.0561   -8.5965 H        1 ZINC000036382102    0.1400
71     H71     2.4075  -10.0680   -9.8304 H        1 ZINC000036382102    0.1400
72     H72     3.4760   -7.8851   -9.4343 H        1 ZINC000036382102    0.1300
73     H73     3.2430   -5.9240   -7.8811 H        1 ZINC000036382102    0.1300
74     H74     2.9766   -7.5230   -7.1473 H        1 ZINC000036382102    0.1400
75     H75     2.7590   -6.4623   -4.9156 H        1 ZINC000036382102    0.1000
76     H76     1.5671   -5.7965   -6.0589 H        1 ZINC000036382102    0.1200
@<TRIPOS>BOND
1     1     2     1
2     1     39    1
3     1     40    1
4     1     41    1
5     2     3     1
6     3     10    ar
7     3     4     ar
8     4     5     1
9     4     7     ar
10    5     6     1
11    6     42    1
12    6     43    1
13    6     44    1
14    7     8     ar
15    7     45    1
16    8     23    ar
17    8     9     ar
18    9     10    ar
19    9     11    ar
20    10    46    1
21    11    12    ar
22    12    13    1
23    12    22    ar
24    13    21    1
25    13    14    1
26    14    15    1
27    14    47    1
28    14    48    1
29    15    16    1
30    15    49    1
31    15    50    1
32    16    17    1
33    16    51    1
34    16    52    1
35    17    18    1
36    17    19    1
37    17    20    1
38    19    53    1
39    19    54    1
40    19    55    1
41    20    21    1
42    20    56    1
43    20    57    1
44    21    58    1
45    21    59    1
46    22    23    ar
47    23    24    1
48    24    25    1
49    24    60    1
50    25    38    1
51    25    26    1
52    25    61    1
53    26    27    1
54    26    62    1
55    26    63    1
56    27    28    1
57    27    64    1
58    27    65    1
59    28    29    1
60    28    30    1
61    28    37    1
62    30    31    1
63    30    66    1
64    30    67    1
65    31    36    ar
66    31    32    ar
67    32    33    ar
68    32    68    1
69    33    34    ar
70    33    69    1
71    34    35    ar
72    34    70    1
73    35    36    ar
74    35    71    1
75    36    72    1
76    37    38    1
77    37    73    1
78    37    74    1
79    38    75    1
80    38    76    1
@<TRIPOS>SUBSTRUCTURE
1   ZINC000036382102 1     RESIDUE    1   A     ZIN   1


@<TRIPOS>MOLECULE
CC1=C(C(C(=C(N1)C)[N+](=O)[O-])C2=CC=CC=C2C(F)(F)F)C(=O)OC
  40   41    0    0    0
SMALL
USER_CHARGES
NO_NAME
@<TRIPOS>ATOM
    1 C1       -0.2538     1.5449    -1.5351 C.3    1 <0>       0.0300
    2 O2       -0.2708     0.1244    -1.6895 O.3    1 <0>      -0.3500
    3 C3        0.6427    -0.5792    -0.9878 C.2    1 <0>       0.5300
    4 O4        1.4321    -0.0004    -0.2645 O.2    1 <0>      -0.4800
    5 C5        0.6825    -1.9868    -1.0929 C.2    1 <0>      -0.2200
    6 C6        1.2047    -2.5516    -2.1986 C.2    1 <0>       0.1900
    7 C7        1.7288    -1.6779    -3.3090 C.3    1 <0>      -0.1300
    8 N8        1.2629    -3.9106    -2.3200 N.pl3  1 <0>      -0.6200
    9 C9        1.1325    -4.7155    -1.1965 C.2    1 <0>       0.2500
   10 C10       1.5885    -6.1507    -1.2543 C.3    1 <0>      -0.1300
   11 C11       0.6175    -4.2440    -0.0827 C.2    1 <0>      -0.1500
   12 N12       0.5039    -5.1371     1.0924 N.pl3  1 <0>       0.0500
   13 O13       0.8850    -6.2916     1.0190 O.2    1 <0>      -0.1900
   14 O14       0.0292    -4.7175     2.1326 O.2    1 <0>      -0.1500
   15 C15       0.1472    -2.8246     0.0333 C.3    1 <0>       0.0700
   16 H16       0.4824    -2.4127     0.9852 H      1 <0>       0.1100
   17 C17      -1.3587    -2.7960    -0.0161 C.ar   1 <0>      -0.0400
   18 C18      -2.0274    -3.4010    -1.0635 C.ar   1 <0>      -0.1100
   19 C19      -3.4090    -3.3747    -1.1088 C.ar   1 <0>      -0.0900
   20 C20      -4.1214    -2.7438    -0.1064 C.ar   1 <0>      -0.1100
   21 C21      -3.4525    -2.1394     0.9418 C.ar   1 <0>      -0.0700
   22 C22      -2.0715    -2.1694     0.9893 C.ar   1 <0>      -0.1600
   23 C23      -1.3424    -1.5105     2.1318 C.3    1 <0>       0.5000
   24 F24      -2.2619    -0.8459     2.9504 F      1 <0>      -0.1800
   25 F25      -0.6707    -2.4837     2.8794 F      1 <0>      -0.1500
   26 F26      -0.4178    -0.5904     1.6263 F      1 <0>      -0.1800
   27 H27      -0.4285     1.7989    -0.4896 H      1 <0>       0.0600
   28 H28       0.7163     1.9326    -1.8460 H      1 <0>       0.0600
   29 H29      -1.0363     1.9868    -2.1520 H      1 <0>       0.1000
   30 H30       2.8027    -1.5380    -3.1851 H      1 <0>       0.1000
   31 H31       1.5328    -2.1544    -4.2695 H      1 <0>       0.0900
   32 H32       1.2300    -0.7093    -3.2754 H      1 <0>       0.1000
   33 H33       1.3951    -4.3139    -3.1923 H      1 <0>       0.4300
   34 H34       1.9855    -6.3661    -2.2463 H      1 <0>       0.0800
   35 H35       2.3660    -6.3152    -0.5083 H      1 <0>       0.1100
   36 H36       0.7440    -6.8088    -1.0501 H      1 <0>       0.1100
   37 H37      -1.4707    -3.8940    -1.8467 H      1 <0>       0.1200
   38 H38      -3.9315    -3.8469    -1.9276 H      1 <0>       0.1300
   39 H39      -5.2006    -2.7227    -0.1422 H      1 <0>       0.1400
   40 H40      -4.0092    -1.6461     1.7248 H      1 <0>       0.1400
@<TRIPOS>BOND
   1    1    2 1
   2    1   27 1
   3    1   28 1
   4    1   29 1
   5    2    3 1
   6    3    4 2
   7    3    5 1
   8    5   15 1
   9    5    6 2
  10    6    7 1
  11    6    8 1
  12    7   30 1
  13    7   31 1
  14    7   32 1
  15    8    9 1
  16    8   33 1
  17    9   10 1
  18    9   11 2
  19   10   34 1
  20   10   35 1
  21   10   36 1
  22   11   12 1
  23   11   15 1
  24   12   13 2
  25   12   14 2
  26   15   16 1
  27   15   17 1
  28   17   22 ar
  29   17   18 ar
  30   18   19 ar
  31   18   37 1
  32   19   20 ar
  33   19   38 1
  34   20   21 ar
  35   20   39 1
  36   21   22 ar
  37   21   40 1
  38   22   23 1
  39   23   24 1
  40   23   25 1
  41   23   26 1


@<TRIPOS>MOLECULE
CC(C)C1CCC2(C1C3CCC4C(C3(CC2)C)(CCC5C4(C=C(C(=O)C5(C)C)C#N)C)C)C(=O)O
79    83    1     0     0
SMALL
USER_CHARGES
@<TRIPOS>ATOM
1      C1      1.2235   -0.6635    1.8539 C.3      1 ZINC000040412069   -0.1500
2      C2      0.5451   -0.3869    0.5107 C.3      1 ZINC000040412069   -0.0900
3      C3      1.4020   -0.9585   -0.6207 C.3      1 ZINC000040412069   -0.1500
4      C4     -0.8363   -1.0499    0.4900 C.3      1 ZINC000040412069   -0.0700
5      H5     -1.4319   -0.7130    1.3324 H        1 ZINC000040412069    0.0600
6      C6     -0.6653   -2.5931    0.5192 C.3      1 ZINC000040412069   -0.1100
7      C7     -1.2259   -3.0973   -0.8410 C.3      1 ZINC000040412069   -0.1000
8      C8     -2.3274   -2.0554   -1.1120 C.3      1 ZINC000040412069   -0.1300
9      C9     -3.4468   -2.2695   -0.1244 C.2      1 ZINC000040412069    0.5100
10     O10    -3.3788   -3.1771    0.6868 O.co2    1 ZINC000040412069   -0.7000
11     O11    -4.4199   -1.5350   -0.1373 O.co2    1 ZINC000040412069   -0.6800
12     C12    -2.8622   -2.0099   -2.5242 C.3      1 ZINC000040412069   -0.0800
13     C13    -3.8105   -0.8075   -2.6571 C.3      1 ZINC000040412069   -0.1000
14     C14    -3.1437    0.5032   -2.2514 C.3      1 ZINC000040412069   -0.0100
15     C15    -2.0542    0.7931   -3.2915 C.3      1 ZINC000040412069   -0.1500
16     C16    -2.5103    0.4140   -0.8565 C.3      1 ZINC000040412069   -0.0700
17     H17    -3.2831    0.2460   -0.0970 H        1 ZINC000040412069    0.1100
18     C18    -1.8148    1.7283   -0.5019 C.3      1 ZINC000040412069   -0.1100
19     C19    -2.8315    2.8771   -0.5310 C.3      1 ZINC000040412069   -0.1200
20     C20    -3.4592    2.9537   -1.9197 C.3      1 ZINC000040412069   -0.0600
21     H21    -2.6093    3.0850   -2.6307 H        1 ZINC000040412069    0.0700
22     C22    -4.2944    4.2129   -2.1021 C.3      1 ZINC000040412069   -0.0200
23     C23    -5.3072    4.3827   -0.9766 C.3      1 ZINC000040412069   -0.1500
24     C24    -3.3719    5.4143   -2.0257 C.2      1 ZINC000040412069    0.0300
25     C25    -3.7830    6.5906   -2.5286 C.2      1 ZINC000040412069   -0.1500
26     C26    -2.9387    7.7433   -2.4270 C.1      1 ZINC000040412069    0.2600
27     N27    -2.2692    8.6574   -2.3463 N.1      1 ZINC000040412069   -0.4200
28     C28    -5.0877    6.6953   -3.1979 C.2      1 ZINC000040412069    0.4200
29     O29    -5.6421    7.7771   -3.2923 O.2      1 ZINC000040412069   -0.4500
30     C30    -5.7295    5.4708   -3.8128 C.3      1 ZINC000040412069   -0.0800
31     C31    -7.1985    5.3864   -3.3841 C.3      1 ZINC000040412069   -0.1400
32     C32    -5.7036    5.6556   -5.3480 C.3      1 ZINC000040412069   -0.1400
33     C33    -4.9585    4.2096   -3.4690 C.3      1 ZINC000040412069   -0.0700
34     H34    -4.1268    4.1376   -4.2144 H        1 ZINC000040412069    0.0700
35     C35    -5.7924    2.9458   -3.6633 C.3      1 ZINC000040412069   -0.1100
36     C36    -4.8407    1.7390   -3.6306 C.3      1 ZINC000040412069   -0.1100
37     C37    -4.1671    1.6523   -2.2613 C.3      1 ZINC000040412069   -0.0300
38     C38    -5.2529    1.3164   -1.2268 C.3      1 ZINC000040412069   -0.1500
39     C39    -1.5460   -0.7471   -0.8302 C.3      1 ZINC000040412069   -0.0600
40     H40    -0.7726   -0.6186   -1.5949 H        1 ZINC000040412069    0.0600
41     H41     2.2369   -0.2625    1.8384 H        1 ZINC000040412069    0.0400
42     H42     0.6560   -0.1860    2.6527 H        1 ZINC000040412069    0.0500
43     H43     1.2609   -1.7389    2.0274 H        1 ZINC000040412069    0.0600
44     H44     0.4339    0.6888    0.3744 H        1 ZINC000040412069    0.0600
45     H45     0.9749   -0.6700   -1.5812 H        1 ZINC000040412069    0.0500
46     H46     2.4162   -0.5669   -0.5417 H        1 ZINC000040412069    0.0400
47     H47     1.4253   -2.0456   -0.5452 H        1 ZINC000040412069    0.0600
48     H48     0.3914   -2.8476    0.6038 H        1 ZINC000040412069    0.0400
49     H49    -1.2226   -3.0214    1.3473 H        1 ZINC000040412069    0.0800
50     H50    -0.4653   -3.0621   -1.6141 H        1 ZINC000040412069    0.0400
51     H51    -1.6548   -4.0908   -0.7416 H        1 ZINC000040412069    0.0600
52     H52    -2.0417   -1.9321   -3.2378 H        1 ZINC000040412069    0.0400
53     H53    -3.4186   -2.9314   -2.7345 H        1 ZINC000040412069    0.0400
54     H54    -4.0994   -0.7250   -3.7140 H        1 ZINC000040412069    0.0300
55     H55    -4.7093   -0.9910   -2.0819 H        1 ZINC000040412069    0.1000
56     H56    -2.5084    0.8813   -4.2785 H        1 ZINC000040412069    0.0500
57     H57    -1.5497    1.7257   -3.0390 H        1 ZINC000040412069    0.0500
58     H58    -1.3304   -0.0219   -3.2963 H        1 ZINC000040412069    0.0500
59     H59    -1.4145    1.6559    0.5155 H        1 ZINC000040412069    0.0500
60     H60    -0.9992    1.9389   -1.1841 H        1 ZINC000040412069    0.0500
61     H61    -3.5763    2.7140    0.2397 H        1 ZINC000040412069    0.0700
62     H62    -2.3031    3.8116   -0.3207 H        1 ZINC000040412069    0.0500
63     H63    -4.7992    4.3029   -0.0156 H        1 ZINC000040412069    0.0700
64     H64    -5.7797    5.3616   -1.0576 H        1 ZINC000040412069    0.0500
65     H65    -6.0673    3.6050   -1.0515 H        1 ZINC000040412069    0.0900
66     H66    -2.4065    5.3081   -1.5796 H        1 ZINC000040412069    0.1400
67     H67    -7.7270    6.2785   -3.7204 H        1 ZINC000040412069    0.0600
68     H68    -7.6568    4.5032   -3.8291 H        1 ZINC000040412069    0.0700
69     H69    -7.2566    5.3177   -2.2978 H        1 ZINC000040412069    0.0600
70     H70    -4.6717    5.7550   -5.6846 H        1 ZINC000040412069    0.0600
71     H71    -6.1598    4.7887   -5.8261 H        1 ZINC000040412069    0.0700
72     H72    -6.2611    6.5533   -5.6153 H        1 ZINC000040412069    0.0600
73     H73    -6.5509    2.8428   -2.9000 H        1 ZINC000040412069    0.0800
74     H74    -6.2747    2.9697   -4.6450 H        1 ZINC000040412069    0.0600
75     H75    -5.4159    0.8309   -3.8118 H        1 ZINC000040412069    0.0700
76     H76    -4.1029    1.8642   -4.4180 H        1 ZINC000040412069    0.0600
77     H77    -5.6174    0.3036   -1.3985 H        1 ZINC000040412069    0.0800
78     H78    -4.8328    1.3862   -0.2234 H        1 ZINC000040412069    0.0600
79     H79    -6.0785    2.0212   -1.3248 H        1 ZINC000040412069    0.0400
@<TRIPOS>BOND
1     1     2     1
2     1     41    1
3     1     42    1
4     1     43    1
5     2     3     1
6     2     4     1
7     2     44    1
8     3     45    1
9     3     46    1
10    3     47    1
11    4     5     1
12    4     39    1
13    4     6     1
14    6     7     1
15    6     48    1
16    6     49    1
17    7     8     1
18    7     50    1
19    7     51    1
20    8     39    1
21    8     9     1
22    8     12    1
23    9     10    ar
24    9     11    ar
25    12    13    1
26    12    52    1
27    12    53    1
28    13    14    1
29    13    54    1
30    13    55    1
31    14    37    1
32    14    15    1
33    14    16    1
34    15    56    1
35    15    57    1
36    15    58    1
37    16    17    1
38    16    18    1
39    16    39    1
40    18    19    1
41    18    59    1
42    18    60    1
43    19    20    1
44    19    61    1
45    19    62    1
46    20    21    1
47    20    37    1
48    20    22    1
49    22    33    1
50    22    23    1
51    22    24    1
52    23    63    1
53    23    64    1
54    23    65    1
55    24    25    2
56    24    66    1
57    25    26    1
58    25    28    1
59    26    27    3
60    28    29    2
61    28    30    1
62    30    31    1
63    30    32    1
64    30    33    1
65    31    67    1
66    31    68    1
67    31    69    1
68    32    70    1
69    32    71    1
70    32    72    1
71    33    34    1
72    33    35    1
73    35    36    1
74    35    73    1
75    35    74    1
76    36    37    1
77    36    75    1
78    36    76    1
79    37    38    1
80    38    77    1
81    38    78    1
82    38    79    1
83    39    40    1
@<TRIPOS>SUBSTRUCTURE
1   ZINC000040412069 1     RESIDUE    1   A     ZIN   1


@<TRIPOS>MOLECULE
CC1=CN=C(N1)C2=CN=C(N=C2C3=C(C=C(C=C3)Cl)Cl)NCCNC4=NC=C(C=C4)C#N
50    53    1     0     0
SMALL
USER_CHARGES
@<TRIPOS>ATOM
1      C1      2.8925    1.0268    0.6249 C.3      1 ZINC000029053046   -0.0700
2      C2      2.4105   -0.3963    0.5084 C.2      1 ZINC000029053046    0.0100
3      C3      2.5859   -1.2034   -0.5570 C.2      1 ZINC000029053046   -0.0400
4      N4      1.9987   -2.4034   -0.2526 N.pl3    1 ZINC000029053046   -0.5700
5      C5      1.4787   -2.2856    1.0038 C.2      1 ZINC000029053046    0.2600
6      C6      0.7522   -3.3385    1.7413 C.ar     1 ZINC000029053046   -0.1600
7      C7      0.6345   -4.6298    1.2197 C.ar     1 ZINC000029053046    0.2100
8      N8     -0.0231   -5.5445    1.9102 N.ar     1 ZINC000029053046   -0.5600
9      C9     -0.5695   -5.2564    3.0836 C.ar     1 ZINC000029053046    0.5800
10     N10    -1.2479   -6.2481    3.7685 N.pl3    1 ZINC000029053046   -0.6900
11     C11    -1.3543   -7.5923    3.1958 C.3      1 ZINC000029053046    0.1300
12     C12    -2.1479   -8.4905    4.1468 C.3      1 ZINC000029053046    0.1100
13     N13    -2.2543   -9.8347    3.5741 N.pl3    1 ZINC000029053046   -0.7100
14     C14    -2.9341  -10.8285    4.2604 C.ar     1 ZINC000029053046    0.4300
15     C15    -3.5175  -10.5369    5.4915 C.ar     1 ZINC000029053046   -0.2400
16     C16    -4.1888  -11.5208    6.1668 C.ar     1 ZINC000029053046    0.0200
17     C17    -4.2648  -12.7971    5.5887 C.ar     1 ZINC000029053046   -0.1500
18     C18    -4.9567  -13.8575    6.2576 C.1      1 ZINC000029053046    0.2600
19     N19    -5.5056  -14.6987    6.7882 N.1      1 ZINC000029053046   -0.4200
20     C20    -3.6565  -13.0180    4.3516 C.ar     1 ZINC000029053046    0.2100
21     N21    -3.0247  -12.0418    3.7334 N.ar     1 ZINC000029053046   -0.5400
22     N22    -0.4853   -4.0489    3.6201 N.ar     1 ZINC000029053046   -0.5400
23     C23     0.1628   -3.0705    2.9945 C.ar     1 ZINC000029053046    0.3000
24     C24     0.2552   -1.7215    3.5978 C.ar     1 ZINC000029053046    0.0000
25     C25    -0.6611   -0.7317    3.2430 C.ar     1 ZINC000029053046   -0.0500
26     C26    -0.5704    0.5235    3.8081 C.ar     1 ZINC000029053046   -0.1000
27     C27     0.4280    0.8024    4.7263 C.ar     1 ZINC000029053046   -0.0100
28     Cl28    0.5349    2.3843    5.4334 Cl       1 ZINC000029053046   -0.0600
29     C29     1.3408   -0.1755    5.0831 C.ar     1 ZINC000029053046   -0.1000
30     C30     1.2565   -1.4371    4.5285 C.ar     1 ZINC000029053046    0.0200
31     Cl31    2.4012   -2.6628    4.9768 Cl       1 ZINC000029053046   -0.0600
32     N32     1.7407   -1.0752    1.4474 N.2      1 ZINC000029053046   -0.4500
33     H33     3.8976    1.0367    1.0466 H        1 ZINC000029053046    0.0700
34     H34     2.9085    1.4870   -0.3631 H        1 ZINC000029053046    0.0700
35     H35     2.2200    1.5861    1.2754 H        1 ZINC000029053046    0.0700
36     H36     3.0933   -0.9518   -1.4765 H        1 ZINC000029053046    0.1800
37     H37     1.9595   -3.1876   -0.8222 H        1 ZINC000029053046    0.4200
38     H38     1.0748   -4.8765    0.2649 H        1 ZINC000029053046    0.1700
39     H39    -1.6532   -6.0536    4.6280 H        1 ZINC000029053046    0.4200
40     H40    -1.8662   -7.5384    2.2350 H        1 ZINC000029053046    0.0800
41     H41    -0.3562   -8.0064    3.0530 H        1 ZINC000029053046    0.0800
42     H42    -1.6360   -8.5444    5.1076 H        1 ZINC000029053046    0.0800
43     H43    -3.1460   -8.0763    4.2896 H        1 ZINC000029053046    0.0800
44     H44    -1.8489  -10.0292    2.7146 H        1 ZINC000029053046    0.4100
45     H45    -3.4406   -9.5441    5.9095 H        1 ZINC000029053046    0.1400
46     H46    -4.6491  -11.3193    7.1228 H        1 ZINC000029053046    0.1400
47     H47    -3.7076  -13.9960    3.8963 H        1 ZINC000029053046    0.1700
48     H48    -1.4401   -0.9474    2.5267 H        1 ZINC000029053046    0.1300
49     H49    -1.2794    1.2905    3.5335 H        1 ZINC000029053046    0.1400
50     H50     2.1174    0.0476    5.7997 H        1 ZINC000029053046    0.1400
@<TRIPOS>BOND
1     1     2     1
2     1     33    1
3     1     34    1
4     1     35    1
5     2     32    1
6     2     3     2
7     3     4     1
8     3     36    1
9     4     5     1
10    4     37    1
11    5     6     1
12    5     32    2
13    6     23    ar
14    6     7     ar
15    7     8     ar
16    7     38    1
17    8     9     ar
18    9     10    1
19    9     22    ar
20    10    11    1
21    10    39    1
22    11    12    1
23    11    40    1
24    11    41    1
25    12    13    1
26    12    42    1
27    12    43    1
28    13    14    1
29    13    44    1
30    14    21    ar
31    14    15    ar
32    15    16    ar
33    15    45    1
34    16    17    ar
35    16    46    1
36    17    18    1
37    17    20    ar
38    18    19    3
39    20    21    ar
40    20    47    1
41    22    23    ar
42    23    24    1
43    24    30    ar
44    24    25    ar
45    25    26    ar
46    25    48    1
47    26    27    ar
48    26    49    1
49    27    28    1
50    27    29    ar
51    29    30    ar
52    29    50    1
53    30    31    1
@<TRIPOS>SUBSTRUCTURE
1   ZINC000029053046 1     RESIDUE    1   A     ZIN   1


@<TRIPOS>MOLECULE
C1=CC=C(C=C1)C2=NOC(=N2)CSC3=NN=C(O3)C4=CC=NC=C4
  35   38    0    0    0
SMALL
USER_CHARGES
NO_NAME
@<TRIPOS>ATOM
    1 C1       -0.0167     1.3790     0.0096 C.ar   1 <0>      -0.1000
    2 C2        1.1687     2.0918     0.0021 C.ar   1 <0>      -0.1200
    3 C3        2.3774     1.4257    -0.0135 C.ar   1 <0>      -0.0800
    4 C4        2.4021     0.0327    -0.0212 C.ar   1 <0>      -0.0300
    5 C5        3.6989    -0.6892    -0.0375 C.2    1 <0>       0.2200
    6 N6        4.8889    -0.1472    -0.0402 N.2    1 <0>      -0.3600
    7 O7        5.7402    -1.0110    -0.0544 O.3    1 <0>       0.1000
    8 C8        5.1671    -2.2185    -0.0624 C.2    1 <0>       0.1800
    9 C9        5.8785    -3.5469    -0.0802 C.3    1 <0>      -0.0400
   10 S10       6.1511    -4.0624    -1.7937 S.3    1 <0>       0.1300
   11 C11       6.9736    -5.5972    -1.5243 C.2    1 <0>       0.1300
   12 N12       7.2568    -6.1338    -0.3585 N.2    1 <0>      -0.2800
   13 N13       7.8592    -7.2561    -0.5393 N.2    1 <0>      -0.2500
   14 C14       7.9849    -7.4811    -1.8246 C.2    1 <0>       0.2100
   15 C15       8.6196    -8.6602    -2.4477 C.ar   1 <0>       0.0200
   16 C16       8.6975    -8.7840    -3.8407 C.ar   1 <0>      -0.1400
   17 C17       9.2991    -9.9015    -4.3796 C.ar   1 <0>       0.1100
   18 N18       9.7962   -10.8452    -3.6024 N.ar   1 <0>      -0.4700
   19 C19       9.7440   -10.7684    -2.2860 C.ar   1 <0>       0.1100
   20 C20       9.1656    -9.6833    -1.6621 C.ar   1 <0>      -0.1200
   21 O21       7.4222    -6.4383    -2.4749 O.3    1 <0>      -0.1900
   22 N22       3.8710    -2.0303    -0.0464 N.2    1 <0>      -0.4400
   23 C23       1.2052    -0.6804    -0.0131 C.ar   1 <0>      -0.0700
   24 C24       0.0021    -0.0041     0.0020 C.ar   1 <0>      -0.1200
   25 H25      -0.9602     1.9042     0.0260 H      1 <0>       0.1300
   26 H26       1.1484     3.1716     0.0081 H      1 <0>       0.1300
   27 H27       3.3023     1.9832    -0.0200 H      1 <0>       0.1300
   28 H28       6.8382    -3.4520     0.4277 H      1 <0>       0.1500
   29 H29       5.2691    -4.2923     0.4308 H      1 <0>       0.1500
   30 H30       8.2922    -8.0160    -4.4829 H      1 <0>       0.1500
   31 H31       9.3641   -10.0062    -5.4526 H      1 <0>       0.1700
   32 H32      10.1639   -11.5646    -1.6891 H      1 <0>       0.1700
   33 H33       9.1268    -9.6270    -0.5843 H      1 <0>       0.1500
   34 H34       1.2187    -1.7602    -0.0194 H      1 <0>       0.1400
   35 H35      -0.9264    -0.5558     0.0083 H      1 <0>       0.1300
@<TRIPOS>BOND
   1    1   24 ar
   2    1    2 ar
   3    1   25 1
   4    2    3 ar
   5    2   26 1
   6    3    4 ar
   7    3   27 1
   8    4    5 1
   9    4   23 ar
  10    5   22 1
  11    5    6 2
  12    6    7 1
  13    7    8 1
  14    8    9 1
  15    8   22 2
  16    9   10 1
  17    9   28 1
  18    9   29 1
  19   10   11 1
  20   11   21 1
  21   11   12 2
  22   12   13 1
  23   13   14 2
  24   14   15 1
  25   14   21 1
  26   15   20 ar
  27   15   16 ar
  28   16   17 ar
  29   16   30 1
  30   17   18 ar
  31   17   31 1
  32   18   19 ar
  33   19   20 ar
  34   19   32 1
  35   20   33 1
  36   23   24 ar
  37   23   34 1
  38   24   35 1


@<TRIPOS>MOLECULE
C1CCN(CC1)C(=O)N2CCN3C=C(C4=CC(=CC(=C43)C2)F)C5=C(C(=O)NC5=O)C6=CN=C7N6C=CC=C7
63    69    1     0     0
SMALL
USER_CHARGES
@<TRIPOS>ATOM
1      O1      1.3444    2.7865   -0.1232 O.2      1 ZINC000003817327   -0.5700
2      C2      0.3634    2.0695   -0.0796 C.2      1 ZINC000003817327    0.7100
3      N3      0.4911    0.7732    0.2666 N.am     1 ZINC000003817327   -0.6300
4      C4      1.7882    0.0925    0.1535 C.3      1 ZINC000003817327    0.1300
5      C5      2.1303   -0.5442    1.5042 C.3      1 ZINC000003817327   -0.1400
6      C6      0.9793   -1.4534    1.9412 C.3      1 ZINC000003817327   -0.1200
7      C7     -0.2947   -0.6219    2.1079 C.3      1 ZINC000003817327   -0.1400
8      C8     -0.6628    0.0156    0.7698 C.3      1 ZINC000003817327    0.0800
9      N9     -0.8524    2.5723   -0.3720 N.am     1 ZINC000003817327   -0.6200
10     C10    -1.9984    1.6734   -0.4374 C.3      1 ZINC000003817327    0.0800
11     C11    -3.0448    2.1184   -1.4483 C.3      1 ZINC000003817327    0.1000
12     N12    -2.4181    2.3416   -2.7594 N.pl3    1 ZINC000003817327   -0.4700
13     C13    -2.6391    1.6731   -3.9203 C.2      1 ZINC000003817327    0.1200
14     C14    -1.9918    2.3018   -4.9451 C.2      1 ZINC000003817327   -0.1500
15     C15    -2.0099    1.9129   -6.3670 C.2      1 ZINC000003817327   -0.0100
16     C16    -3.0535    2.1001   -7.2751 C.2      1 ZINC000003817327   -0.0400
17     C17    -4.3506    2.7212   -7.0104 C.2      1 ZINC000003817327   -0.0500
18     C18    -4.5756    4.0082   -6.5407 C.2      1 ZINC000003817327    0.1100
19     N19    -5.8834    4.1873   -6.4350 N.2      1 ZINC000003817327   -0.4900
20     C20    -6.5220    3.0814   -6.8123 C.2      1 ZINC000003817327    0.2400
21     C21    -7.8902    2.7664   -6.8830 C.2      1 ZINC000003817327   -0.0800
22     C22    -8.2712    1.5306   -7.3158 C.2      1 ZINC000003817327   -0.0900
23     C23    -7.2959    0.5928   -7.6836 C.2      1 ZINC000003817327   -0.1300
24     C24    -5.9839    0.9121   -7.6091 C.2      1 ZINC000003817327    0.0600
25     N25    -5.5935    2.1458   -7.1837 N.pl3    1 ZINC000003817327   -0.3400
26     C26    -2.5788    1.5413   -8.5603 C.2      1 ZINC000003817327    0.5600
27     O27    -3.2076    1.5173   -9.5993 O.2      1 ZINC000003817327   -0.4500
28     N28    -1.3345    1.0652   -8.3846 N.am     1 ZINC000003817327   -0.6900
29     C29    -0.9288    1.2545   -7.1180 C.2      1 ZINC000003817327    0.5500
30     O30     0.1508    0.9279   -6.6644 O.2      1 ZINC000003817327   -0.4400
31     C31    -1.2730    3.4431   -4.3558 C.ar     1 ZINC000003817327   -0.0400
32     C32    -0.5047    4.4926   -4.8571 C.ar     1 ZINC000003817327   -0.1100
33     C33     0.0430    5.4125   -3.9849 C.ar     1 ZINC000003817327    0.0900
34     F34     0.7703    6.4419   -4.4714 F        1 ZINC000003817327   -0.1400
35     C35    -0.1450    5.2929   -2.6115 C.ar     1 ZINC000003817327   -0.1200
36     C36    -0.8916    4.2519   -2.1065 C.ar     1 ZINC000003817327   -0.0800
37     C37    -1.4963    3.3610   -2.9758 C.ar     1 ZINC000003817327    0.1000
38     C38    -0.9944    4.0164   -0.6120 C.3      1 ZINC000003817327    0.1800
39     H39     1.7290   -0.6821   -0.6110 H        1 ZINC000003817327    0.0600
40     H40     2.5583    0.8157   -0.1150 H        1 ZINC000003817327    0.0900
41     H41     3.0426   -1.1330    1.4083 H        1 ZINC000003817327    0.0800
42     H42     2.2783    0.2384    2.2483 H        1 ZINC000003817327    0.0700
43     H43     0.8156   -2.2209    1.1848 H        1 ZINC000003817327    0.0600
44     H44     1.2307   -1.9268    2.8902 H        1 ZINC000003817327    0.0700
45     H45    -1.1083   -1.2659    2.4417 H        1 ZINC000003817327    0.0800
46     H46    -0.1238    0.1615    2.8463 H        1 ZINC000003817327    0.0700
47     H47    -1.5110    0.6866    0.9058 H        1 ZINC000003817327    0.1100
48     H48    -0.9219   -0.7634    0.0529 H        1 ZINC000003817327    0.0700
49     H49    -1.6484    0.6777   -0.7098 H        1 ZINC000003817327    0.1000
50     H50    -2.4615    1.6228    0.5480 H        1 ZINC000003817327    0.0900
51     H51    -3.8098    1.3473   -1.5399 H        1 ZINC000003817327    0.1100
52     H52    -3.5069    3.0445   -1.1063 H        1 ZINC000003817327    0.0900
53     H53    -3.2365    0.7788   -4.0183 H        1 ZINC000003817327    0.1700
54     H54    -3.8153    4.7374   -6.3027 H        1 ZINC000003817327    0.1900
55     H55    -8.6329    3.4964   -6.5969 H        1 ZINC000003817327    0.1600
56     H56    -9.3190    1.2754   -7.3746 H        1 ZINC000003817327    0.1500
57     H57    -7.5931   -0.3871   -8.0269 H        1 ZINC000003817327    0.1600
58     H58    -5.2389    0.1839   -7.8939 H        1 ZINC000003817327    0.1600
59     H59    -0.8010    0.6462   -9.0780 H        1 ZINC000003817327    0.4300
60     H60    -0.3386    4.5855   -5.9202 H        1 ZINC000003817327    0.1300
61     H61     0.2949    6.0165   -1.9413 H        1 ZINC000003817327    0.1400
62     H62    -1.9649    4.3577   -0.2517 H        1 ZINC000003817327    0.0900
63     H63    -0.1997    4.5579   -0.0988 H        1 ZINC000003817327    0.1100
@<TRIPOS>BOND
1     1     2     2
2     2     3     am
3     2     9     am
4     3     8     1
5     3     4     1
6     4     5     1
7     4     39    1
8     4     40    1
9     5     6     1
10    5     41    1
11    5     42    1
12    6     7     1
13    6     43    1
14    6     44    1
15    7     8     1
16    7     45    1
17    7     46    1
18    8     47    1
19    8     48    1
20    9     38    1
21    9     10    1
22    10    11    1
23    10    49    1
24    10    50    1
25    11    12    1
26    11    51    1
27    11    52    1
28    12    37    1
29    12    13    1
30    13    14    2
31    13    53    1
32    14    15    1
33    14    31    1
34    15    29    1
35    15    16    2
36    16    17    1
37    16    26    1
38    17    25    1
39    17    18    2
40    18    19    1
41    18    54    1
42    19    20    2
43    20    25    1
44    20    21    1
45    21    22    2
46    21    55    1
47    22    23    1
48    22    56    1
49    23    24    2
50    23    57    1
51    24    25    1
52    24    58    1
53    26    27    2
54    26    28    am
55    28    29    am
56    28    59    1
57    29    30    2
58    31    37    ar
59    31    32    ar
60    32    33    ar
61    32    60    1
62    33    34    1
63    33    35    ar
64    35    36    ar
65    35    61    1
66    36    37    ar
67    36    38    1
68    38    62    1
69    38    63    1
@<TRIPOS>SUBSTRUCTURE
1   ZINC000003817327 1     RESIDUE    1   A     ZIN   1


@<TRIPOS>MOLECULE
C=CCOC(=O)C1=C(C=CC(=C1)C2=CC=C(O2)C=C3C(=O)NC(=S)N3)Cl
39    41    1     0     0
SMALL
USER_CHARGES
@<TRIPOS>ATOM
1      C1      5.4169    8.1250   -0.9491 C.2      1 ZINC000004150988   -0.1600
2      C2      5.0374    7.1006   -1.6720 C.2      1 ZINC000004150988   -0.1600
3      C3      5.9902    5.9600   -1.9214 C.3      1 ZINC000004150988    0.1000
4      O4      5.2969    4.6990   -1.7280 O.3      1 ZINC000004150988   -0.3500
5      C5      6.0125    3.5728   -1.9137 C.2      1 ZINC000004150988    0.5000
6      O6      7.1836    3.6424   -2.2287 O.2      1 ZINC000004150988   -0.4800
7      C7      5.3732    2.2538   -1.7345 C.ar     1 ZINC000004150988   -0.1200
8      C8      4.0287    2.1719   -1.3775 C.ar     1 ZINC000004150988   -0.0200
9      C9      3.4346    0.9222   -1.2048 C.ar     1 ZINC000004150988   -0.0400
10     C10     2.0125    0.8261   -0.8218 C.2      1 ZINC000004150988    0.0700
11     C11     1.3171   -0.3340   -0.6283 C.2      1 ZINC000004150988   -0.2000
12     C12     0.0116    0.0215   -0.2797 C.2      1 ZINC000004150988   -0.1200
13     C13    -0.0371    1.4042   -0.2746 C.2      1 ZINC000004150988   -0.0300
14     C14    -1.1699    2.1933    0.0198 C.2      1 ZINC000004150988    0.0500
15     C15    -1.0480    3.5481    0.1295 C.2      1 ZINC000004150988   -0.0300
16     N16    -2.0850    4.4807    0.2457 N.am     1 ZINC000004150988   -0.5900
17     C17    -1.5247    5.7018    0.3312 C.2      1 ZINC000004150988    0.5300
18     S18    -2.3892    7.1709    0.4907 S.2      1 ZINC000004150988   -0.5200
19     N19    -0.1869    5.5971    0.2668 N.am     1 ZINC000004150988   -0.6300
20     C20     0.1584    4.3006    0.1430 C.2      1 ZINC000004150988    0.5400
21     O21     1.2897    3.8572    0.0589 O.2      1 ZINC000004150988   -0.4300
22     O22     1.1871    1.8662   -0.6060 O.3      1 ZINC000004150988   -0.1100
23     C23     4.1874   -0.2398   -1.4008 C.ar     1 ZINC000004150988   -0.0400
24     C24     5.5170   -0.1523   -1.7594 C.ar     1 ZINC000004150988   -0.1200
25     C25     6.1146    1.0831   -1.9269 C.ar     1 ZINC000004150988    0.0300
26     Cl26    7.7882    1.1819   -2.3776 Cl       1 ZINC000004150988   -0.0200
27     H27     6.4127    8.1522   -0.5319 H        1 ZINC000004150988    0.1000
28     H28     4.7341    8.9424   -0.7704 H        1 ZINC000004150988    0.1100
29     H29     4.0416    7.0734   -2.0892 H        1 ZINC000004150988    0.1200
30     H30     6.8259    6.0257   -1.2247 H        1 ZINC000004150988    0.0800
31     H31     6.3643    6.0159   -2.9437 H        1 ZINC000004150988    0.0800
32     H32     3.4503    3.0722   -1.2316 H        1 ZINC000004150988    0.1600
33     H33     1.7038   -1.3376   -0.7268 H        1 ZINC000004150988    0.1600
34     H34    -0.8022   -0.6527   -0.0573 H        1 ZINC000004150988    0.1700
35     H35    -2.1332    1.7249    0.1581 H        1 ZINC000004150988    0.1800
36     H36    -3.0344    4.2830    0.2638 H        1 ZINC000004150988    0.4500
37     H37     0.4350    6.3406    0.3040 H        1 ZINC000004150988    0.4500
38     H38     3.7270   -1.2081   -1.2716 H        1 ZINC000004150988    0.1500
39     H39     6.0936   -1.0531   -1.9094 H        1 ZINC000004150988    0.1500
@<TRIPOS>BOND
1     1     2     2
2     1     27    1
3     1     28    1
4     2     3     1
5     2     29    1
6     3     4     1
7     3     30    1
8     3     31    1
9     4     5     1
10    5     6     2
11    5     7     1
12    7     25    ar
13    7     8     ar
14    8     9     ar
15    8     32    1
16    9     10    1
17    9     23    ar
18    10    22    1
19    10    11    2
20    11    12    1
21    11    33    1
22    12    13    2
23    12    34    1
24    13    14    1
25    13    22    1
26    14    15    2
27    14    35    1
28    15    20    1
29    15    16    1
30    16    17    am
31    16    36    1
32    17    18    2
33    17    19    am
34    19    20    am
35    19    37    1
36    20    21    2
37    23    24    ar
38    23    38    1
39    24    25    ar
40    24    39    1
41    25    26    1
@<TRIPOS>SUBSTRUCTURE
1   ZINC000004150988 1     RESIDUE    1   A     ZIN   1


@<TRIPOS>MOLECULE
COC1=CC=C(C=C1)CNC(=O)NC2=NC=C(S2)[N+](=O)[O-]
  33   34    0    0    0
SMALL
USER_CHARGES
NO_NAME
@<TRIPOS>ATOM
    1 C1       -0.0173     1.4248     0.0099 C.3    1 <0>       0.0300
    2 O2        0.0021    -0.0041     0.0020 O.3    1 <0>      -0.3200
    3 C3       -1.2003    -0.6375     0.0101 C.ar   1 <0>       0.1400
    4 C4       -2.3746     0.1011     0.0195 C.ar   1 <0>      -0.2100
    5 C5       -3.5956    -0.5451     0.0272 C.ar   1 <0>      -0.0600
    6 C6       -3.6478    -1.9268     0.0260 C.ar   1 <0>      -0.1600
    7 C7       -4.9811    -2.6292     0.0350 C.3    1 <0>       0.1800
    8 N8       -5.4232    -2.8552    -1.3433 N.am   1 <0>      -0.7300
    9 C9       -6.5973    -3.4725    -1.5817 C.2    1 <0>       0.7000
   10 O10      -7.2896    -3.8418    -0.6529 O.2    1 <0>      -0.5100
   11 N11      -7.0041    -3.6805    -2.8497 N.am   1 <0>      -0.6300
   12 C12      -8.2150    -4.3171    -3.0956 C.2    1 <0>       0.3200
   13 N13      -9.0286    -4.7439    -2.1812 N.2    1 <0>      -0.4700
   14 C14     -10.1385    -5.3276    -2.5941 C.2    1 <0>       0.1900
   15 C15     -10.2685    -5.3971    -3.9200 C.2    1 <0>      -0.2500
   16 N16     -11.4077    -5.9960    -4.6518 N.pl3  1 <0>       0.0700
   17 O17     -12.3383    -6.4840    -4.0358 O.2    1 <0>      -0.1400
   18 O18     -11.4143    -6.0007    -5.8698 O.2    1 <0>      -0.1600
   19 S19      -8.8516    -4.6448    -4.6481 S.3    1 <0>       0.2700
   20 C20      -2.4788    -2.6651     0.0162 C.ar   1 <0>      -0.0600
   21 C21      -1.2554    -2.0237     0.0032 C.ar   1 <0>      -0.1500
   22 H22       1.0053     1.8021     0.0021 H      1 <0>       0.1000
   23 H23      -0.5445     1.7859    -0.8732 H      1 <0>       0.0600
   24 H24      -0.5275     1.7763     0.9067 H      1 <0>       0.0600
   25 H25      -2.3343     1.1803     0.0211 H      1 <0>       0.1300
   26 H26      -4.5101     0.0294     0.0345 H      1 <0>       0.1300
   27 H27      -4.8840    -3.5865     0.5470 H      1 <0>       0.0800
   28 H28      -5.7136    -2.0117     0.5548 H      1 <0>       0.0800
   29 H29      -4.8709    -2.5606    -2.0843 H      1 <0>       0.4000
   30 H30      -6.4518    -3.3859    -3.5907 H      1 <0>       0.4300
   31 H31     -10.8809    -5.7175    -1.9135 H      1 <0>       0.2100
   32 H32      -2.5223    -3.7443     0.0150 H      1 <0>       0.1300
   33 H33      -0.3426    -2.6008    -0.0045 H      1 <0>       0.1300
@<TRIPOS>BOND
   1    1    2 1
   2    1   22 1
   3    1   23 1
   4    1   24 1
   5    2    3 1
   6    3   21 ar
   7    3    4 ar
   8    4    5 ar
   9    4   25 1
  10    5    6 ar
  11    5   26 1
  12    6    7 1
  13    6   20 ar
  14    7    8 1
  15    7   27 1
  16    7   28 1
  17    8    9 am
  18    8   29 1
  19    9   10 2
  20    9   11 am
  21   11   12 1
  22   11   30 1
  23   12   19 1
  24   12   13 2
  25   13   14 1
  26   14   15 2
  27   14   31 1
  28   15   16 1
  29   15   19 1
  30   16   17 2
  31   16   18 2
  32   20   21 ar
  33   20   32 1
  34   21   33 1


@<TRIPOS>MOLECULE
C1OC2=C(O1)C=C(C=C2)C3=NN=C(O3)SCC4=CC=C(C=C4)C5=CC=CC=C5C#N
45    49    1     0     0
SMALL
USER_CHARGES
@<TRIPOS>ATOM
1      N1      0.0175   -1.1399   -0.0042 N.1      1 ZINC000022415373   -0.4000
2      C2      0.0021   -0.0041    0.0020 C.1      1 ZINC000022415373    0.2500
3      C3     -0.0173    1.4278    0.0099 C.ar     1 ZINC000022415373   -0.0200
4      C4     -1.2323    2.1135    0.0310 C.ar     1 ZINC000022415373   -0.0700
5      C5     -1.2449    3.4930    0.0384 C.ar     1 ZINC000022415373   -0.1200
6      C6     -0.0572    4.2050    0.0251 C.ar     1 ZINC000022415373   -0.0900
7      C7      1.1546    3.5436    0.0037 C.ar     1 ZINC000022415373   -0.1100
8      C8      1.1888    2.1524    0.0023 C.ar     1 ZINC000022415373    0.0000
9      C9      2.4871    1.4386   -0.0201 C.ar     1 ZINC000022415373   -0.0500
10     C10     2.7404    0.4176    0.8952 C.ar     1 ZINC000022415373   -0.1000
11     C11     3.9512   -0.2439    0.8692 C.ar     1 ZINC000022415373   -0.0900
12     C12     4.9127    0.1041   -0.0626 C.ar     1 ZINC000022415373   -0.0800
13     C13     6.2328   -0.6225   -0.0860 C.3      1 ZINC000022415373   -0.0800
14     S14     6.1145   -2.0531   -1.1885 S.3      1 ZINC000022415373    0.0800
15     C15     7.7467   -2.6975   -1.0298 C.2      1 ZINC000022415373    0.1300
16     N16     8.7076   -2.2039   -0.2841 N.2      1 ZINC000022415373   -0.2800
17     N17     9.7633   -2.9280   -0.4111 N.2      1 ZINC000022415373   -0.2600
18     C18     9.5195   -3.9122   -1.2420 C.2      1 ZINC000022415373    0.2200
19     C19    10.4707   -4.9642   -1.6550 C.ar     1 ZINC000022415373   -0.0200
20     C20    10.0726   -5.9528   -2.5565 C.ar     1 ZINC000022415373   -0.0700
21     C21    10.9623   -6.9343   -2.9409 C.ar     1 ZINC000022415373   -0.1000
22     C22    12.2533   -6.9437   -2.4340 C.ar     1 ZINC000022415373    0.0600
23     O23    13.3021   -7.7898   -2.6526 O.3      1 ZINC000022415373   -0.3000
24     C24    14.4697   -7.0811   -2.1975 C.3      1 ZINC000022415373    0.2100
25     O25    13.9583   -6.1899   -1.1890 O.3      1 ZINC000022415373   -0.3000
26     C26    12.6573   -5.9587   -1.5329 C.ar     1 ZINC000022415373    0.0300
27     C27    11.7723   -4.9690   -1.1488 C.ar     1 ZINC000022415373   -0.0500
28     O28     8.2357   -3.7904   -1.6468 O.3      1 ZINC000022415373   -0.2000
29     C29     4.6672    1.1162   -0.9731 C.ar     1 ZINC000022415373   -0.0900
30     C30     3.4582    1.7813   -0.9603 C.ar     1 ZINC000022415373   -0.1000
31     H31    -2.1624    1.5646    0.0411 H        1 ZINC000022415373    0.1400
32     H32    -2.1869    4.0210    0.0544 H        1 ZINC000022415373    0.1400
33     H33    -0.0790    5.2847    0.0311 H        1 ZINC000022415373    0.1400
34     H34     2.0765    4.1062   -0.0073 H        1 ZINC000022415373    0.1400
35     H35     1.9906    0.1453    1.6232 H        1 ZINC000022415373    0.1300
36     H36     4.1487   -1.0346    1.5778 H        1 ZINC000022415373    0.1300
37     H37     7.0114    0.0501   -0.4457 H        1 ZINC000022415373    0.1100
38     H38     6.4801   -0.9592    0.9208 H        1 ZINC000022415373    0.1100
39     H39     9.0679   -5.9494   -2.9528 H        1 ZINC000022415373    0.1500
40     H40    10.6525   -7.6983   -3.6385 H        1 ZINC000022415373    0.1500
41     H41    15.1934   -7.7726   -1.7660 H        1 ZINC000022415373    0.1400
42     H42    14.9181   -6.5169   -3.0153 H        1 ZINC000022415373    0.0900
43     H43    12.0859   -4.2023   -0.4559 H        1 ZINC000022415373    0.1500
44     H44     5.4218    1.3838   -1.6980 H        1 ZINC000022415373    0.1300
45     H45     3.2676    2.5712   -1.6717 H        1 ZINC000022415373    0.1300
@<TRIPOS>BOND
1     1     2     3
2     2     3     1
3     3     8     ar
4     3     4     ar
5     4     5     ar
6     4     31    1
7     5     6     ar
8     5     32    1
9     6     7     ar
10    6     33    1
11    7     8     ar
12    7     34    1
13    8     9     1
14    9     30    ar
15    9     10    ar
16    10    11    ar
17    10    35    1
18    11    12    ar
19    11    36    1
20    12    13    1
21    12    29    ar
22    13    14    1
23    13    37    1
24    13    38    1
25    14    15    1
26    15    28    1
27    15    16    2
28    16    17    1
29    17    18    2
30    18    19    1
31    18    28    1
32    19    27    ar
33    19    20    ar
34    20    21    ar
35    20    39    1
36    21    22    ar
37    21    40    1
38    22    26    ar
39    22    23    1
40    23    24    1
41    24    25    1
42    24    41    1
43    24    42    1
44    25    26    1
45    26    27    ar
46    27    43    1
47    29    30    ar
48    29    44    1
49    30    45    1
@<TRIPOS>SUBSTRUCTURE
1   ZINC000022415373 1     RESIDUE    1   A     ZIN   1


@<TRIPOS>MOLECULE
CC1=NN=C(O1)C2=CC3=C(C=C2)OC=C3C4=CC=C(C=C4)S(=O)C
38    41    1     0     0
SMALL
USER_CHARGES
@<TRIPOS>ATOM
1      C1     -0.0184    1.5028    0.0103 C.3      1 ZINC000058631630   -0.0600
2      C2      0.0021   -0.0041    0.0020 C.2      1 ZINC000058631630    0.1700
3      N3      0.0081   -0.7679   -1.0543 N.2      1 ZINC000058631630   -0.2800
4      N4      0.0264   -2.0024   -0.6924 N.2      1 ZINC000058631630   -0.2700
5      C5      0.0326   -2.0691    0.6184 C.2      1 ZINC000058631630    0.2100
6      C6      0.0531   -3.3021    1.4336 C.ar     1 ZINC000058631630   -0.0400
7      C7      0.0523   -3.2185    2.8307 C.ar     1 ZINC000058631630   -0.0600
8      C8      0.0711   -4.3491    3.5959 C.ar     1 ZINC000058631630   -0.1000
9      C9      0.0909   -5.6031    2.9943 C.ar     1 ZINC000058631630    0.0800
10     O10     0.1123   -6.8593    3.4848 O.3      1 ZINC000058631630   -0.1800
11     C11     0.1267   -7.7669    2.4948 C.2      1 ZINC000058631630    0.0400
12     C12     0.1154   -7.1421    1.2951 C.2      1 ZINC000058631630   -0.1400
13     C13     0.1243   -7.7787   -0.0438 C.ar     1 ZINC000058631630    0.0200
14     C14    -0.8033   -7.3904   -1.0093 C.ar     1 ZINC000058631630   -0.1200
15     C15    -0.7899   -7.9861   -2.2541 C.ar     1 ZINC000058631630   -0.0500
16     C16     0.1415   -8.9667   -2.5446 C.ar     1 ZINC000058631630   -0.4600
17     S17     0.1529   -9.7223   -4.1363 S.o      1 ZINC000058631630    1.3300
18     C18     1.2772   -8.6602   -5.0842 C.3      1 ZINC000058631630   -0.5000
19     O19    -1.1790   -9.5280   -4.5919 O.2      1 ZINC000058631630   -0.8500
20     C20     1.0645   -9.3560   -1.5905 C.ar     1 ZINC000058631630   -0.0400
21     C21     1.0640   -8.7637   -0.3441 C.ar     1 ZINC000058631630   -0.1300
22     C22     0.0915   -5.6979    1.5925 C.ar     1 ZINC000058631630   -0.1200
23     C23     0.0675   -4.5481    0.8125 C.ar     1 ZINC000058631630   -0.0100
24     O24     0.0232   -0.8036    1.0827 O.3      1 ZINC000058631630   -0.2200
25     H25     1.0042    1.8801    0.0026 H        1 ZINC000058631630    0.1000
26     H26    -0.5455    1.8639   -0.8728 H        1 ZINC000058631630    0.1100
27     H27    -0.5286    1.8543    0.9071 H        1 ZINC000058631630    0.1000
28     H28     0.0370   -2.2500    3.3082 H        1 ZINC000058631630    0.1500
29     H29     0.0709   -4.2695    4.6730 H        1 ZINC000058631630    0.1500
30     H30     0.1447   -8.8375    2.6359 H        1 ZINC000058631630    0.2200
31     H31    -1.5312   -6.6252   -0.7835 H        1 ZINC000058631630    0.1300
32     H32    -1.5083   -7.6864   -3.0027 H        1 ZINC000058631630    0.1300
33     H33     2.2603   -8.6602   -4.6135 H        1 ZINC000058631630    0.1100
34     H34     1.3621   -9.0387   -6.1029 H        1 ZINC000058631630    0.1100
35     H35     0.8847   -7.6436   -5.1059 H        1 ZINC000058631630    0.0800
36     H36     1.7894  -10.1221   -1.8229 H        1 ZINC000058631630    0.1400
37     H37     1.7852   -9.0681    0.3999 H        1 ZINC000058631630    0.1300
38     H38     0.0631   -4.6203   -0.2650 H        1 ZINC000058631630    0.1500
@<TRIPOS>BOND
1     1     2     1
2     1     25    1
3     1     26    1
4     1     27    1
5     2     24    1
6     2     3     2
7     3     4     1
8     4     5     2
9     5     6     1
10    5     24    1
11    6     23    ar
12    6     7     ar
13    7     8     ar
14    7     28    1
15    8     9     ar
16    8     29    1
17    9     22    ar
18    9     10    1
19    10    11    1
20    11    12    2
21    11    30    1
22    12    13    1
23    12    22    1
24    13    21    ar
25    13    14    ar
26    14    15    ar
27    14    31    1
28    15    16    ar
29    15    32    1
30    16    17    1
31    16    20    ar
32    17    18    1
33    17    19    2
34    18    33    1
35    18    34    1
36    18    35    1
37    20    21    ar
38    20    36    1
39    21    37    1
40    22    23    ar
41    23    38    1
@<TRIPOS>SUBSTRUCTURE
1   ZINC000058631630 1     RESIDUE    1   A     ZIN   1


@<TRIPOS>MOLECULE
C1=CC=C2C(=C1)C(=C(N2)C3=C(NC4=C3C=CC(=C4)Br)O)N=O
  32   35    0    0    0
SMALL
USER_CHARGES
NO_NAME
@<TRIPOS>ATOM
    1 O1        0.0021    -0.0041     0.0020 O.2    1 <0>       0.0800
    2 N2       -0.0144     1.2138     0.0087 N.2    1 <0>      -0.3000
    3 C3        1.1226     1.8911     0.0015 C.2    1 <0>      -0.1600
    4 C4        1.2775     3.2852     0.0132 C.2    1 <0>       0.2500
    5 C5        0.1518     4.2868     0.0369 C.3    1 <0>      -0.0300
    6 C6        0.3151     5.2409     1.2009 C.2    1 <0>       0.5300
    7 O7        0.3271     4.9466     2.3775 O.2    1 <0>      -0.4700
    8 N8        0.4449     6.4751     0.6856 N.am   1 <0>      -0.6500
    9 C9        0.3884     6.4741    -0.7085 C.ar   1 <0>       0.1500
   10 C10       0.4786     7.5200    -1.6243 C.ar   1 <0>      -0.1100
   11 C11       0.3919     7.2648    -2.9785 C.ar   1 <0>      -0.0500
   12 Br12      0.5148     8.6910    -4.2141 Br     1 <0>      -0.0200
   13 C13       0.2161     5.9711    -3.4362 C.ar   1 <0>      -0.1000
   14 C14       0.1262     4.9272    -2.5316 C.ar   1 <0>      -0.0400
   15 C15       0.2114     5.1795    -1.1812 C.ar   1 <0>      -0.1400
   16 N16       2.5792     3.5862     0.0008 N.pl3  1 <0>      -0.5300
   17 C17       3.3555     2.4406    -0.0195 C.ar   1 <0>       0.0700
   18 C18       4.7298     2.2317    -0.0377 C.ar   1 <0>      -0.1100
   19 C19       5.2315     0.9467    -0.0561 C.ar   1 <0>      -0.1000
   20 C20       4.3775    -0.1442    -0.0566 C.ar   1 <0>      -0.1200
   21 C21       3.0102     0.0446    -0.0387 C.ar   1 <0>      -0.0700
   22 C22       2.4941     1.3340    -0.0141 C.ar   1 <0>      -0.0700
   23 H23      -0.8104     3.7773     0.0902 H      1 <0>       0.1700
   24 H24       0.5641     7.2749     1.2214 H      1 <0>       0.4200
   25 H25       0.6162     8.5324    -1.2744 H      1 <0>       0.1400
   26 H26       0.1495     5.7761    -4.4963 H      1 <0>       0.1500
   27 H27      -0.0111     3.9159    -2.8850 H      1 <0>       0.1400
   28 H28       2.9337     4.4891     0.0051 H      1 <0>       0.4200
   29 H29       5.4044     3.0751    -0.0378 H      1 <0>       0.1300
   30 H30       6.3000     0.7897    -0.0705 H      1 <0>       0.1400
   31 H31       4.7827    -1.1452    -0.0714 H      1 <0>       0.1400
   32 H32       2.3449    -0.8061    -0.0395 H      1 <0>       0.1500
@<TRIPOS>BOND
   1    1    2 2
   2    2    3 1
   3    3   22 1
   4    3    4 2
   5    4    5 1
   6    4   16 1
   7    5   15 1
   8    5    6 1
   9    5   23 1
  10    6    7 2
  11    6    8 am
  12    8    9 1
  13    8   24 1
  14    9   15 ar
  15    9   10 ar
  16   10   11 ar
  17   10   25 1
  18   11   12 1
  19   11   13 ar
  20   13   14 ar
  21   13   26 1
  22   14   15 ar
  23   14   27 1
  24   16   17 1
  25   16   28 1
  26   17   22 ar
  27   17   18 ar
  28   18   19 ar
  29   18   29 1
  30   19   20 ar
  31   19   30 1
  32   20   21 ar
  33   20   31 1
  34   21   22 ar
  35   21   32 1


@<TRIPOS>MOLECULE
CN1C(=O)N(C(=O)S1)CC2=CC=CC=C2
25    26    1     0     0
SMALL
USER_CHARGES
@<TRIPOS>ATOM
1      C1     -0.0178    1.4608    0.0101 C.3      1 ZINC000000027361    0.1300
2      N2      0.0021   -0.0041    0.0020 N.am     1 ZINC000000027361   -0.6200
3      S3      0.0104   -1.0170   -1.3609 S.3      1 ZINC000000027361    0.2300
4      C4      0.0346   -2.4852   -0.4625 C.2      1 ZINC000000027361    0.4800
5      O5      0.0491   -3.6187   -0.9060 O.2      1 ZINC000000027361   -0.4300
6      N6      0.0349   -2.1191    0.8304 N.am     1 ZINC000000027361   -0.5600
7      C7      0.0532   -3.1052    1.9137 C.3      1 ZINC000000027361    0.1600
8      C8      1.4801   -3.4240    2.2788 C.ar     1 ZINC000000027361   -0.1300
9      C9      2.1448   -4.4518    1.6364 C.ar     1 ZINC000000027361   -0.0900
10     C10     3.4537   -4.7442    1.9712 C.ar     1 ZINC000000027361   -0.1200
11     C11     4.0981   -4.0086    2.9482 C.ar     1 ZINC000000027361   -0.1100
12     C12     3.4337   -2.9802    3.5900 C.ar     1 ZINC000000027361   -0.1300
13     C13     2.1262   -2.6849    3.2521 C.ar     1 ZINC000000027361   -0.0900
14     C14     0.0233   -0.8162    1.0703 C.2      1 ZINC000000027361    0.6800
15     O15     0.0228   -0.3770    2.2051 O.2      1 ZINC000000027361   -0.5200
16     H16     1.0048    1.8381    0.0023 H        1 ZINC000000027361    0.0800
17     H17    -0.5450    1.8219   -0.8730 H        1 ZINC000000027361    0.0900
18     H18    -0.5280    1.8123    0.9069 H        1 ZINC000000027361    0.1000
19     H19    -0.4623   -2.6986    2.7838 H        1 ZINC000000027361    0.1100
20     H20    -0.4498   -4.0148    1.5856 H        1 ZINC000000027361    0.1100
21     H21     1.6414   -5.0265    0.8731 H        1 ZINC000000027361    0.1300
22     H22     3.9728   -5.5477    1.4698 H        1 ZINC000000027361    0.1300
23     H23     5.1205   -4.2375    3.2104 H        1 ZINC000000027361    0.1200
24     H24     3.9370   -2.4056    4.3536 H        1 ZINC000000027361    0.1300
25     H25     1.6071   -1.8815    3.7535 H        1 ZINC000000027361    0.1300
@<TRIPOS>BOND
1     1     2     1
2     1     16    1
3     1     17    1
4     1     18    1
5     2     14    am
6     2     3     1
7     3     4     1
8     4     5     2
9     4     6     am
10    6     7     1
11    6     14    am
12    7     8     1
13    7     19    1
14    7     20    1
15    8     13    ar
16    8     9     ar
17    9     10    ar
18    9     21    1
19    10    11    ar
20    10    22    1
21    11    12    ar
22    11    23    1
23    12    13    ar
24    12    24    1
25    13    25    1
26    14    15    2
@<TRIPOS>SUBSTRUCTURE
1   ZINC000000027361 1     RESIDUE    1   A     ZIN   1


@<TRIPOS>MOLECULE
CN1C=C(C2=CC=CC=C21)C3=C(C(=O)NC3=O)C4=C(C=C(C=C4)Cl)Cl
  37   40    0    0    0
SMALL
USER_CHARGES
NO_NAME
@<TRIPOS>ATOM
    1 C1       -0.0178     1.4608     0.0101 C.3    1 <0>       0.0700
    2 N2        0.0021    -0.0041     0.0020 N.pl3  1 <0>      -0.4700
    3 C3        0.0078    -0.7727    -1.1169 C.2    1 <0>       0.1100
    4 C4        0.0278    -2.0944    -0.7674 C.2    1 <0>      -0.1600
    5 C5        0.0402    -3.2453    -1.6802 C.2    1 <0>       0.0100
    6 C6        1.1164    -3.7097    -2.4247 C.2    1 <0>      -0.1000
    7 C7        2.4806    -3.1453    -2.4587 C.ar   1 <0>      -0.0200
    8 C8        3.3549    -3.3581    -1.3901 C.ar   1 <0>      -0.0600
    9 C9        4.6275    -2.8283    -1.4280 C.ar   1 <0>      -0.1000
   10 C10       5.0402    -2.0858    -2.5222 C.ar   1 <0>      -0.0100
   11 Cl11      6.6439    -1.4223    -2.5607 Cl     1 <0>      -0.0500
   12 C12       4.1794    -1.8708    -3.5858 C.ar   1 <0>      -0.1000
   13 C13       2.9052    -2.4000    -3.5636 C.ar   1 <0>       0.0000
   14 Cl14      1.8274    -2.1303    -4.8975 Cl     1 <0>      -0.0500
   15 C15       0.6235    -4.8799    -3.1740 C.2    1 <0>       0.5600
   16 O16       1.2804    -5.5582    -3.9390 O.2    1 <0>      -0.4400
   17 N17      -0.6712    -5.0735    -2.8715 N.am   1 <0>      -0.6900
   18 C18      -1.0924    -4.1515    -1.9890 C.2    1 <0>       0.5500
   19 O19      -2.2129    -4.0695    -1.5286 O.2    1 <0>      -0.4400
   20 C20       0.0348    -2.1366     0.7062 C.ar   1 <0>      -0.0700
   21 C21       0.0532    -3.1664     1.6433 C.ar   1 <0>      -0.0800
   22 C22       0.0549    -2.8650     2.9883 C.ar   1 <0>      -0.1300
   23 C23       0.0379    -1.5437     3.4093 C.ar   1 <0>      -0.1000
   24 C24       0.0192    -0.5145     2.4923 C.ar   1 <0>      -0.1200
   25 C25       0.0236    -0.7978     1.1309 C.ar   1 <0>       0.0900
   26 H26       1.0048     1.8381     0.0023 H      1 <0>       0.0800
   27 H27      -0.5450     1.8219    -0.8730 H      1 <0>       0.0900
   28 H28      -0.5280     1.8123     0.9069 H      1 <0>       0.0900
   29 H29      -0.0022    -0.3972    -2.1295 H      1 <0>       0.1700
   30 H30       3.0346    -3.9361    -0.5359 H      1 <0>       0.1500
   31 H31       5.3040    -2.9924    -0.6023 H      1 <0>       0.1500
   32 H32       4.5075    -1.2913    -4.4360 H      1 <0>       0.1500
   33 H33      -1.2239    -5.7822    -3.2365 H      1 <0>       0.4300
   34 H34       0.0658    -4.1961     1.3179 H      1 <0>       0.1200
   35 H35       0.0692    -3.6614     3.7176 H      1 <0>       0.1300
   36 H36       0.0391    -1.3189     4.4656 H      1 <0>       0.1300
   37 H37       0.0054     0.5109     2.8310 H      1 <0>       0.1200
@<TRIPOS>BOND
   1    1    2 1
   2    1   26 1
   3    1   27 1
   4    1   28 1
   5    2   25 1
   6    2    3 1
   7    3    4 2
   8    3   29 1
   9    4    5 1
  10    4   20 1
  11    5   18 1
  12    5    6 2
  13    6    7 1
  14    6   15 1
  15    7   13 ar
  16    7    8 ar
  17    8    9 ar
  18    8   30 1
  19    9   10 ar
  20    9   31 1
  21   10   11 1
  22   10   12 ar
  23   12   13 ar
  24   12   32 1
  25   13   14 1
  26   15   16 2
  27   15   17 am
  28   17   18 am
  29   17   33 1
  30   18   19 2
  31   20   25 ar
  32   20   21 ar
  33   21   22 ar
  34   21   34 1
  35   22   23 ar
  36   22   35 1
  37   23   24 ar
  38   23   36 1
  39   24   25 ar
  40   24   37 1


@<TRIPOS>MOLECULE
C1=CC=C(C=C1)C2=CC3=NC=CN=C3N2
24    26    1     0     0
SMALL
USER_CHARGES
@<TRIPOS>ATOM
1      C1     -0.0171    1.4127    0.0098 C.2      1 ZINC000001586981   -0.1600
2      C2      1.2687    1.8432   -0.0002 C.2      1 ZINC000001586981    0.1500
3      C3      1.6966    3.2586    0.0038 C.ar     1 ZINC000001586981   -0.0400
4      C4      0.7443    4.2786    0.0247 C.ar     1 ZINC000001586981   -0.0900
5      C5      1.1502    5.5972    0.0287 C.ar     1 ZINC000001586981   -0.1100
6      C6      2.4980    5.9092    0.0122 C.ar     1 ZINC000001586981   -0.1100
7      C7      3.4472    4.9028   -0.0086 C.ar     1 ZINC000001586981   -0.1100
8      C8      3.0546    3.5802   -0.0075 C.ar     1 ZINC000001586981   -0.1100
9      N9      2.1132    0.7562   -0.0141 N.pl3    1 ZINC000001586981   -0.5600
10     C10     1.3589   -0.3936   -0.0130 C.ar     1 ZINC000001586981    0.2400
11     N11     1.6694   -1.6823   -0.0235 N.ar     1 ZINC000001586981   -0.4500
12     C12     0.7111   -2.5907   -0.0199 C.ar     1 ZINC000001586981    0.0900
13     C13    -0.6225   -2.2099   -0.0052 C.ar     1 ZINC000001586981    0.0400
14     N14    -0.9527   -0.9331    0.0050 N.ar     1 ZINC000001586981   -0.4000
15     C15     0.0021   -0.0041    0.0020 C.ar     1 ZINC000001586981    0.0600
16     H16    -0.8979    2.0376    0.0256 H        1 ZINC000001586981    0.1600
17     H17    -0.3081    4.0363    0.0373 H        1 ZINC000001586981    0.1300
18     H18     0.4143    6.3875    0.0445 H        1 ZINC000001586981    0.1300
19     H19     2.8106    6.9430    0.0151 H        1 ZINC000001586981    0.1300
20     H20     4.4977    5.1530   -0.0218 H        1 ZINC000001586981    0.1300
21     H21     3.7965    2.7955   -0.0233 H        1 ZINC000001586981    0.1200
22     H22     3.0824    0.7950   -0.0236 H        1 ZINC000001586981    0.4200
23     H23     0.9680   -3.6396   -0.0289 H        1 ZINC000001586981    0.1800
24     H24    -1.3956   -2.9640   -0.0024 H        1 ZINC000001586981    0.1800
@<TRIPOS>BOND
1     1     15    1
2     1     2     2
3     1     16    1
4     2     3     1
5     2     9     1
6     3     8     ar
7     3     4     ar
8     4     5     ar
9     4     17    1
10    5     6     ar
11    5     18    1
12    6     7     ar
13    6     19    1
14    7     8     ar
15    7     20    1
16    8     21    1
17    9     10    1
18    9     22    1
19    10    15    ar
20    10    11    ar
21    11    12    ar
22    12    13    ar
23    12    23    1
24    13    14    ar
25    13    24    1
26    14    15    ar
@<TRIPOS>SUBSTRUCTURE
1   ZINC000001586981 1     RESIDUE    1   A     ZIN   1


@<TRIPOS>MOLECULE
CN1C=C(C2=C1C=CC(=C2)F)C3=C(C(=O)NC3=O)C4=CC(=CC=C4)NCC(CO)O
50    53    1     0     0
SMALL
USER_CHARGES
@<TRIPOS>ATOM
1      C1     -0.0178    1.4608    0.0101 C.3      1 ZINC000005932684    0.0700
2      N2      0.0021   -0.0041    0.0020 N.pl3    1 ZINC000005932684   -0.4700
3      C3      0.0078   -0.7714   -1.1169 C.2      1 ZINC000005932684    0.1100
4      C4      0.0282   -2.1024   -0.7613 C.2      1 ZINC000005932684   -0.1500
5      C5      0.0408   -3.2561   -1.6695 C.2      1 ZINC000005932684   -0.0200
6      C6      1.1171   -3.7231   -2.4126 C.2      1 ZINC000005932684   -0.0700
7      C7      2.4817   -3.1585   -2.4487 C.ar     1 ZINC000005932684    0.0100
8      C8      2.6965   -1.8757   -2.9593 C.ar     1 ZINC000005932684   -0.1500
9      C9      3.9721   -1.3507   -2.9913 C.ar     1 ZINC000005932684   -0.0700
10     C10     5.0410   -2.0896   -2.5195 C.ar     1 ZINC000005932684   -0.1900
11     C11     4.8383   -3.3675   -2.0092 C.ar     1 ZINC000005932684    0.2200
12     N12     5.9220   -4.1097   -1.5337 N.pl3    1 ZINC000005932684   -0.7400
13     C13     7.2721   -3.5421   -1.5727 C.3      1 ZINC000005932684    0.1000
14     C14     8.2668   -4.5522   -0.9972 C.3      1 ZINC000005932684    0.1000
15     H15     8.2399   -5.4666   -1.5898 H        1 ZINC000005932684    0.1100
16     O16     7.9143   -4.8504    0.3551 O.3      1 ZINC000005932684   -0.5500
17     C17     9.6767   -3.9594   -1.0379 C.3      1 ZINC000005932684    0.0500
18     O18    10.6199   -4.9438   -0.6097 O.3      1 ZINC000005932684   -0.5600
19     C19     3.5606   -3.9024   -1.9674 C.ar     1 ZINC000005932684   -0.1600
20     C20     0.6244   -4.8951   -3.1580 C.2      1 ZINC000005932684    0.5600
21     O21     1.2816   -5.5756   -3.9209 O.2      1 ZINC000005932684   -0.4500
22     N22    -0.6703   -5.0882   -2.8555 N.am     1 ZINC000005932684   -0.6900
23     C23    -1.0920   -4.1642   -1.9752 C.2      1 ZINC000005932684    0.5600
24     O24    -2.2124   -4.0814   -1.5149 O.2      1 ZINC000005932684   -0.4400
25     C25     0.0354   -2.1375    0.7127 C.ar     1 ZINC000005932684   -0.0500
26     C26     0.0542   -3.1646    1.6531 C.ar     1 ZINC000005932684   -0.1100
27     C27     0.0560   -2.8584    2.9990 C.ar     1 ZINC000005932684    0.0800
28     F28     0.0742   -3.8511    3.9152 F        1 ZINC000005932684   -0.1400
29     C29     0.0397   -1.5334    3.4146 C.ar     1 ZINC000005932684   -0.1300
30     C30     0.0206   -0.5088    2.4929 C.ar     1 ZINC000005932684   -0.0900
31     C31     0.0236   -0.7975    1.1323 C.ar     1 ZINC000005932684    0.0800
32     H32     1.0048    1.8381    0.0023 H        1 ZINC000005932684    0.0800
33     H33    -0.5450    1.8219   -0.8730 H        1 ZINC000005932684    0.0900
34     H34    -0.5280    1.8123    0.9069 H        1 ZINC000005932684    0.0900
35     H35    -0.0024   -0.3968   -2.1298 H        1 ZINC000005932684    0.1800
36     H36     1.8642   -1.2953   -3.3292 H        1 ZINC000005932684    0.1200
37     H37     4.1362   -0.3592   -3.3867 H        1 ZINC000005932684    0.1300
38     H38     6.0371   -1.6733   -2.5476 H        1 ZINC000005932684    0.1200
39     H39     5.7807   -5.0009   -1.1778 H        1 ZINC000005932684    0.4100
40     H40     7.5409   -3.3146   -2.6042 H        1 ZINC000005932684    0.0700
41     H41     7.2990   -2.6276   -0.9801 H        1 ZINC000005932684    0.0700
42     H42     7.9174   -4.0812    0.9412 H        1 ZINC000005932684    0.3800
43     H43     9.9115   -3.6500   -2.0564 H        1 ZINC000005932684    0.0600
44     H44     9.7269   -3.0955   -0.3751 H        1 ZINC000005932684    0.0500
45     H45    11.5368   -4.6365   -0.6103 H        1 ZINC000005932684    0.3800
46     H46     3.4011   -4.8943   -1.5712 H        1 ZINC000005932684    0.1200
47     H47    -1.2226   -5.7981   -3.2186 H        1 ZINC000005932684    0.4300
48     H48     0.0670   -4.1953    1.3309 H        1 ZINC000005932684    0.1300
49     H49     0.0416   -1.3037    4.4699 H        1 ZINC000005932684    0.1400
50     H50     0.0076    0.5181    2.8270 H        1 ZINC000005932684    0.1300
@<TRIPOS>BOND
1     1     2     1
2     1     32    1
3     1     33    1
4     1     34    1
5     2     31    1
6     2     3     1
7     3     4     2
8     3     35    1
9     4     5     1
10    4     25    1
11    5     23    1
12    5     6     2
13    6     7     1
14    6     20    1
15    7     19    ar
16    7     8     ar
17    8     9     ar
18    8     36    1
19    9     10    ar
20    9     37    1
21    10    11    ar
22    10    38    1
23    11    12    1
24    11    19    ar
25    12    13    1
26    12    39    1
27    13    14    1
28    13    40    1
29    13    41    1
30    14    15    1
31    14    16    1
32    14    17    1
33    16    42    1
34    17    18    1
35    17    43    1
36    17    44    1
37    18    45    1
38    19    46    1
39    20    21    2
40    20    22    am
41    22    23    am
42    22    47    1
43    23    24    2
44    25    31    ar
45    25    26    ar
46    26    27    ar
47    26    48    1
48    27    28    1
49    27    29    ar
50    29    30    ar
51    29    49    1
52    30    31    ar
53    30    50    1
@<TRIPOS>SUBSTRUCTURE
1   ZINC000005932684 1     RESIDUE    1   A     ZIN   1


@<TRIPOS>MOLECULE
C1CN2C=C(C3=CC=CC(=C32)CN1)C4=C(C(=O)NC4=O)C5=CN=C6N5C=CC=C6
  47   52    0    0    0
SMALL
USER_CHARGES
NO_NAME
@<TRIPOS>ATOM
    1 O1        0.0020    -0.0040    -0.0031 O.2    1 <0>      -0.4400
    2 C2       -0.0144     1.2116     0.0063 C.2    1 <0>       0.5600
    3 N3       -1.1171     1.9785     0.0322 N.am   1 <0>      -0.6900
    4 C4       -0.7887     3.2815     0.0360 C.2    1 <0>       0.5500
    5 O5       -1.5709     4.2105     0.0572 O.2    1 <0>      -0.4400
    6 C6        0.6866     3.3939     0.0098 C.2    1 <0>      -0.0200
    7 C7        1.4761     4.6246     0.0053 C.2    1 <0>      -0.0600
    8 C8        2.4490     4.9849    -0.9175 C.2    1 <0>       0.1000
    9 N9        2.9276     6.1704    -0.5725 N.2    1 <0>      -0.4900
   10 C10       2.3154     6.6009     0.5289 C.2    1 <0>       0.2400
   11 C11       2.4598     7.7786     1.2827 C.2    1 <0>      -0.0800
   12 C12       1.6862     7.9638     2.3903 C.2    1 <0>      -0.0900
   13 C13       0.7592     6.9796     2.7619 C.2    1 <0>      -0.1300
   14 C14       0.6333     5.8521     2.0256 C.2    1 <0>       0.0600
   15 N15       1.3973     5.6607     0.9143 N.pl3  1 <0>      -0.3400
   16 C16       1.1705     2.0844    -0.0024 C.2    1 <0>      -0.0400
   17 C17       2.5825     1.6616    -0.0289 C.2    1 <0>      -0.1100
   18 C18       3.4634     1.6915     1.0187 C.2    1 <0>       0.1000
   19 N19       4.6936     1.2923     0.5913 N.pl3  1 <0>      -0.4900
   20 C20       5.9808     1.4494     1.2984 C.3    1 <0>       0.1100
   21 C21       6.9932     1.9905     0.2804 C.3    1 <0>      -0.0300
   22 N22       7.6407     0.9493    -0.5125 N.4    1 <0>      -0.5000
   23 H23       7.9425     1.3580    -1.3842 H      1 <0>       0.4300
   24 H24       8.4591     0.6350    -0.0130 H      1 <0>       0.4300
   25 C25       6.8222    -0.2131    -0.8143 C.3    1 <0>       0.0400
   26 C26       5.5388     0.1879    -1.4949 C.ar   1 <0>      -0.1700
   27 C27       4.5938     0.8402    -0.7002 C.ar   1 <0>       0.1000
   28 C28       3.3149     1.1200    -1.1849 C.ar   1 <0>      -0.0700
   29 C29       3.0353     0.8553    -2.5234 C.ar   1 <0>      -0.0300
   30 C30       4.0067     0.2900    -3.3243 C.ar   1 <0>      -0.1400
   31 C31       5.2556    -0.0483    -2.8131 C.ar   1 <0>      -0.0400
   32 H32      -2.0254     1.6384     0.0458 H      1 <0>       0.4400
   33 H33       2.7614     4.3993    -1.7695 H      1 <0>       0.1800
   34 H34       3.1773     8.5299     0.9875 H      1 <0>       0.1600
   35 H35       1.7872     8.8638     2.9786 H      1 <0>       0.1500
   36 H36       0.1444     7.1220     3.6383 H      1 <0>       0.1600
   37 H37      -0.0829     5.0988     2.3188 H      1 <0>       0.1600
   38 H38       3.2202     1.9864     2.0288 H      1 <0>       0.1800
   39 H39       5.8687     2.1550     2.1216 H      1 <0>       0.1400
   40 H40       6.3159     0.4843     1.6784 H      1 <0>       0.1000
   41 H41       6.4773     2.6728    -0.3952 H      1 <0>       0.1400
   42 H42       7.7611     2.5490     0.8157 H      1 <0>       0.1500
   43 H43       7.3799    -0.8828    -1.4689 H      1 <0>       0.1500
   44 H44       6.5870    -0.7352     0.1132 H      1 <0>       0.1300
   45 H45       2.0638     1.0907    -2.9322 H      1 <0>       0.1300
   46 H46       3.7953     0.1115    -4.3682 H      1 <0>       0.1400
   47 H47       5.9965    -0.5051    -3.4524 H      1 <0>       0.1400
@<TRIPOS>BOND
   1    1    2 2
   2    2   16 1
   3    2    3 am
   4    3    4 am
   5    3   32 1
   6    4    5 2
   7    4    6 1
   8    6    7 1
   9    6   16 2
  10    7   15 1
  11    7    8 2
  12    8    9 1
  13    8   33 1
  14    9   10 2
  15   10   15 1
  16   10   11 1
  17   11   12 2
  18   11   34 1
  19   12   13 1
  20   12   35 1
  21   13   14 2
  22   13   36 1
  23   14   15 1
  24   14   37 1
  25   16   17 1
  26   17   28 1
  27   17   18 2
  28   18   19 1
  29   18   38 1
  30   19   27 1
  31   19   20 1
  32   20   21 1
  33   20   39 1
  34   20   40 1
  35   21   22 1
  36   21   41 1
  37   21   42 1
  38   22   23 1
  39   22   24 1
  40   22   25 1
  41   25   26 1
  42   25   43 1
  43   25   44 1
  44   26   31 ar
  45   26   27 ar
  46   27   28 ar
  47   28   29 ar
  48   29   30 ar
  49   29   45 1
  50   30   31 ar
  51   30   46 1
  52   31   47 1


@<TRIPOS>MOLECULE
CC12C3=CC=CC=C3CC(N1)C4=CC=CC=C24
33    36    1     0     0
SMALL
USER_CHARGES
@<TRIPOS>ATOM
1      C1     -0.0187    1.5258    0.0104 C.3      1 ZINC000025757829   -0.1600
2      C2      0.0021   -0.0041    0.0020 C.3      1 ZINC000025757829    0.1700
3      N3     -1.3618   -0.6184    0.0144 N.4      1 ZINC000025757829   -0.5200
4      H4     -1.7514   -0.6199    0.9452 H        1 ZINC000025757829    0.4400
5      H5     -1.9769   -0.1511   -0.6348 H        1 ZINC000025757829    0.4300
6      C6     -1.0512   -2.0068   -0.4413 C.3      1 ZINC000025757829    0.1000
7      H7     -1.9304   -2.4911   -0.8662 H        1 ZINC000025757829    0.1600
8      C8     -0.5301   -2.7742    0.7764 C.3      1 ZINC000025757829   -0.1000
9      C9      0.4743   -1.9475    1.5373 C.ar     1 ZINC000025757829   -0.0900
10     C10     1.1583   -2.5228    2.5964 C.ar     1 ZINC000025757829   -0.1000
11     C11     2.0766   -1.7804    3.3133 C.ar     1 ZINC000025757829   -0.0900
12     C12     2.3166   -0.4607    2.9800 C.ar     1 ZINC000025757829   -0.1100
13     C13     1.6375    0.1148    1.9207 C.ar     1 ZINC000025757829   -0.0800
14     C14     0.7334   -0.6025    1.1907 C.ar     1 ZINC000025757829   -0.1300
15     C15     0.0216   -1.8227   -1.4742 C.ar     1 ZINC000025757829   -0.1400
16     C16     0.4269   -2.6362   -2.5144 C.ar     1 ZINC000025757829   -0.0600
17     C17     1.4559   -2.1615   -3.3199 C.ar     1 ZINC000025757829   -0.1000
18     C18     2.0464   -0.9352   -3.0961 C.ar     1 ZINC000025757829   -0.0900
19     C19     1.6469   -0.1162   -2.0448 C.ar     1 ZINC000025757829   -0.0600
20     C20     0.6594   -0.5900   -1.2261 C.ar     1 ZINC000025757829   -0.1200
21     H21     1.0039    1.9031    0.0027 H        1 ZINC000025757829    0.1100
22     H22    -0.5459    1.8868   -0.8726 H        1 ZINC000025757829    0.0900
23     H23    -0.5289    1.8773    0.9072 H        1 ZINC000025757829    0.0900
24     H24    -1.3660   -3.0170    1.4325 H        1 ZINC000025757829    0.1100
25     H25    -0.0563   -3.6976    0.4431 H        1 ZINC000025757829    0.1200
26     H26     0.9730   -3.5532    2.8618 H        1 ZINC000025757829    0.1400
27     H27     2.6085   -2.2326    4.1374 H        1 ZINC000025757829    0.1400
28     H28     3.0314    0.1195    3.5447 H        1 ZINC000025757829    0.1400
29     H29     1.8201    1.1459    1.6563 H        1 ZINC000025757829    0.1300
30     H30    -0.0338   -3.5964   -2.6933 H        1 ZINC000025757829    0.1500
31     H31     1.8018   -2.7690   -4.1432 H        1 ZINC000025757829    0.1400
32     H32     2.8375   -0.6033   -3.7521 H        1 ZINC000025757829    0.1400
33     H33     2.1082    0.8443   -1.8685 H        1 ZINC000025757829    0.1400
@<TRIPOS>BOND
1     1     2     1
2     1     21    1
3     1     22    1
4     1     23    1
5     2     14    1
6     2     20    1
7     2     3     1
8     3     4     1
9     3     5     1
10    3     6     1
11    6     7     1
12    6     8     1
13    6     15    1
14    8     9     1
15    8     24    1
16    8     25    1
17    9     14    ar
18    9     10    ar
19    10    11    ar
20    10    26    1
21    11    12    ar
22    11    27    1
23    12    13    ar
24    12    28    1
25    13    14    ar
26    13    29    1
27    15    20    ar
28    15    16    ar
29    16    17    ar
30    16    30    1
31    17    18    ar
32    17    31    1
33    18    19    ar
34    18    32    1
35    19    20    ar
36    19    33    1
@<TRIPOS>SUBSTRUCTURE
1   ZINC000025757829 1     RESIDUE    1   A     ZIN   1


@<TRIPOS>MOLECULE
CC1COC2=C3N1C=C(C(=O)C3=C(C(=C2NCCCN4C=CC=N4)F)N)C#N
  47   50    0    0    0
SMALL
USER_CHARGES
NO_NAME
@<TRIPOS>ATOM
    1 C1       -0.3656     1.3706     0.1410 C.3    1 <0>      -0.1700
    2 C2       -0.2081    -0.1490     0.0586 C.3    1 <0>       0.0900
    3 H3       -1.1922    -0.6146     0.0058 H      1 <0>       0.1100
    4 C4        0.5971    -0.5123    -1.1919 C.3    1 <0>       0.0500
    5 O5        0.8527    -1.9219    -1.1785 O.3    1 <0>      -0.3000
    6 C6        1.4761    -2.4023    -0.0647 C.ar   1 <0>      -0.0400
    7 C7        2.2747    -3.5358    -0.1525 C.ar   1 <0>       0.2800
    8 N8        2.4303    -4.1786    -1.3823 N.pl3  1 <0>      -0.7200
    9 C9        3.5056    -5.1564    -1.5668 C.3    1 <0>       0.1200
   10 C10       3.4544    -5.7077    -2.9931 C.3    1 <0>      -0.1400
   11 C11       4.5773    -6.7288    -3.1858 C.3    1 <0>       0.1400
   12 N12       4.5283    -7.2567    -4.5515 N.pl3  1 <0>      -0.3700
   13 C13       5.5448    -7.2582    -5.4391 C.2    1 <0>       0.0500
   14 C14       5.0958    -7.8319    -6.5794 C.2    1 <0>      -0.2700
   15 C15       3.7591    -8.1933    -6.3820 C.2    1 <0>       0.0500
   16 N16       3.4196    -7.8545    -5.1647 N.2    1 <0>      -0.3000
   17 C17       2.9219    -4.0368     0.9747 C.ar   1 <0>      -0.0700
   18 F18       3.6938    -5.1410     0.8752 F      1 <0>      -0.1300
   19 C19       2.7747    -3.4034     2.1966 C.ar   1 <0>       0.3000
   20 N20       3.4226    -3.9015     3.3268 N.pl3  1 <0>      -0.8400
   21 C21       1.9704    -2.2568     2.2924 C.ar   1 <0>      -0.2600
   22 C22       1.3084    -1.7549     1.1557 C.ar   1 <0>       0.2100
   23 N23       0.5013    -0.6344     1.2519 N.pl3  1 <0>      -0.4800
   24 C24       0.3404     0.0300     2.4110 C.2    1 <0>       0.2300
   25 C25       0.9442    -0.3647     3.5826 C.2    1 <0>      -0.2200
   26 C26       0.7391     0.3753     4.7913 C.1    1 <0>       0.2800
   27 N27       0.5764     0.9624     5.7501 N.1    1 <0>      -0.4200
   28 C28       1.8052    -1.5591     3.5745 C.2    1 <0>       0.4600
   29 O29       2.3552    -1.9538     4.5888 O.2    1 <0>      -0.4900
   30 H30       0.6188     1.8357     0.1938 H      1 <0>       0.0800
   31 H31      -0.8902     1.7300    -0.7443 H      1 <0>       0.0900
   32 H32      -0.9377     1.6288     1.0321 H      1 <0>       0.0800
   33 H33       0.0257    -0.2526    -2.0830 H      1 <0>       0.1300
   34 H34       1.5421     0.0308    -1.1890 H      1 <0>       0.0800
   35 H35       1.8266    -3.9777    -2.1144 H      1 <0>       0.4100
   36 H36       4.4683    -4.6739    -1.3981 H      1 <0>       0.0700
   37 H37       3.3793    -5.9736    -0.8567 H      1 <0>       0.0900
   38 H38       2.4916    -6.1901    -3.1618 H      1 <0>       0.0900
   39 H39       3.5806    -4.8904    -3.7033 H      1 <0>       0.0800
   40 H40       5.5400    -6.2463    -3.0171 H      1 <0>       0.1000
   41 H41       4.4511    -7.5460    -2.4757 H      1 <0>       0.0900
   42 H42       6.5385    -6.8707    -5.2697 H      1 <0>       0.1700
   43 H43       5.6683    -7.9834    -7.4826 H      1 <0>       0.1500
   44 H44       3.1192    -8.6737    -7.1074 H      1 <0>       0.1800
   45 H45       4.1747    -4.5060     3.2278 H      1 <0>       0.4000
   46 H46       3.1211    -3.6435     4.2119 H      1 <0>       0.4200
   47 H47      -0.2881     0.9082     2.4221 H      1 <0>       0.1800
@<TRIPOS>BOND
   1    1    2 1
   2    1   30 1
   3    1   31 1
   4    1   32 1
   5    2    3 1
   6    2   23 1
   7    2    4 1
   8    4    5 1
   9    4   33 1
  10    4   34 1
  11    5    6 1
  12    6   22 ar
  13    6    7 ar
  14    7    8 1
  15    7   17 ar
  16    8    9 1
  17    8   35 1
  18    9   10 1
  19    9   36 1
  20    9   37 1
  21   10   11 1
  22   10   38 1
  23   10   39 1
  24   11   12 1
  25   11   40 1
  26   11   41 1
  27   12   16 1
  28   12   13 1
  29   13   14 2
  30   13   42 1
  31   14   15 1
  32   14   43 1
  33   15   16 2
  34   15   44 1
  35   17   18 1
  36   17   19 ar
  37   19   20 1
  38   19   21 ar
  39   20   45 1
  40   20   46 1
  41   21   28 1
  42   21   22 ar
  43   22   23 1
  44   23   24 1
  45   24   25 2
  46   24   47 1
  47   25   26 1
  48   25   28 1
  49   26   27 3
  50   28   29 2


@<TRIPOS>MOLECULE
C1=CC=C2C(=C1)C(=C(N2)C3=C(NC4=C3C=CC(=C4)Br)O)N=O
  32   35    0    0    0
SMALL
USER_CHARGES
NO_NAME
@<TRIPOS>ATOM
    1 O1        0.0021    -0.0041     0.0020 O.2    1 <0>       0.0800
    2 N2       -0.0144     1.2138     0.0087 N.2    1 <0>      -0.3000
    3 C3        1.1226     1.8911     0.0015 C.2    1 <0>      -0.1600
    4 C4        1.2775     3.2852     0.0132 C.2    1 <0>       0.2500
    5 C5        0.1518     4.2868     0.0369 C.3    1 <0>      -0.0300
    6 C6        0.3151     5.2409     1.2009 C.2    1 <0>       0.5300
    7 O7        0.3271     4.9466     2.3775 O.2    1 <0>      -0.4700
    8 N8        0.4449     6.4751     0.6856 N.am   1 <0>      -0.6500
    9 C9        0.3884     6.4741    -0.7085 C.ar   1 <0>       0.1500
   10 C10       0.4786     7.5200    -1.6243 C.ar   1 <0>      -0.1100
   11 C11       0.3919     7.2648    -2.9785 C.ar   1 <0>      -0.0500
   12 Br12      0.5148     8.6910    -4.2141 Br     1 <0>      -0.0200
   13 C13       0.2161     5.9711    -3.4362 C.ar   1 <0>      -0.1000
   14 C14       0.1262     4.9272    -2.5316 C.ar   1 <0>      -0.0400
   15 C15       0.2114     5.1795    -1.1812 C.ar   1 <0>      -0.1400
   16 N16       2.5792     3.5862     0.0008 N.pl3  1 <0>      -0.5300
   17 C17       3.3555     2.4406    -0.0195 C.ar   1 <0>       0.0700
   18 C18       4.7298     2.2317    -0.0377 C.ar   1 <0>      -0.1100
   19 C19       5.2315     0.9467    -0.0561 C.ar   1 <0>      -0.1000
   20 C20       4.3775    -0.1442    -0.0566 C.ar   1 <0>      -0.1200
   21 C21       3.0102     0.0446    -0.0387 C.ar   1 <0>      -0.0700
   22 C22       2.4941     1.3340    -0.0141 C.ar   1 <0>      -0.0700
   23 H23      -0.8104     3.7773     0.0902 H      1 <0>       0.1700
   24 H24       0.5641     7.2749     1.2214 H      1 <0>       0.4200
   25 H25       0.6162     8.5324    -1.2744 H      1 <0>       0.1400
   26 H26       0.1495     5.7761    -4.4963 H      1 <0>       0.1500
   27 H27      -0.0111     3.9159    -2.8850 H      1 <0>       0.1400
   28 H28       2.9337     4.4891     0.0051 H      1 <0>       0.4200
   29 H29       5.4044     3.0751    -0.0378 H      1 <0>       0.1300
   30 H30       6.3000     0.7897    -0.0705 H      1 <0>       0.1400
   31 H31       4.7827    -1.1452    -0.0714 H      1 <0>       0.1400
   32 H32       2.3449    -0.8061    -0.0395 H      1 <0>       0.1500
@<TRIPOS>BOND
   1    1    2 2
   2    2    3 1
   3    3   22 1
   4    3    4 2
   5    4    5 1
   6    4   16 1
   7    5   15 1
   8    5    6 1
   9    5   23 1
  10    6    7 2
  11    6    8 am
  12    8    9 1
  13    8   24 1
  14    9   15 ar
  15    9   10 ar
  16   10   11 ar
  17   10   25 1
  18   11   12 1
  19   11   13 ar
  20   13   14 ar
  21   13   26 1
  22   14   15 ar
  23   14   27 1
  24   16   17 1
  25   16   28 1
  26   17   22 ar
  27   17   18 ar
  28   18   19 ar
  29   18   29 1
  30   19   20 ar
  31   19   30 1
  32   20   21 ar
  33   20   31 1
  34   21   22 ar
  35   21   32 1


@<TRIPOS>MOLECULE
CN1C(=O)N(C(=O)S1)CC2=CC=CC=C2
25    26    1     0     0
SMALL
USER_CHARGES
@<TRIPOS>ATOM
1      C1     -0.0178    1.4608    0.0101 C.3      1 ZINC000000027361    0.1300
2      N2      0.0021   -0.0041    0.0020 N.am     1 ZINC000000027361   -0.6200
3      S3      0.0104   -1.0170   -1.3609 S.3      1 ZINC000000027361    0.2300
4      C4      0.0346   -2.4852   -0.4625 C.2      1 ZINC000000027361    0.4800
5      O5      0.0491   -3.6187   -0.9060 O.2      1 ZINC000000027361   -0.4300
6      N6      0.0349   -2.1191    0.8304 N.am     1 ZINC000000027361   -0.5600
7      C7      0.0532   -3.1052    1.9137 C.3      1 ZINC000000027361    0.1600
8      C8      1.4801   -3.4240    2.2788 C.ar     1 ZINC000000027361   -0.1300
9      C9      2.1448   -4.4518    1.6364 C.ar     1 ZINC000000027361   -0.0900
10     C10     3.4537   -4.7442    1.9712 C.ar     1 ZINC000000027361   -0.1200
11     C11     4.0981   -4.0086    2.9482 C.ar     1 ZINC000000027361   -0.1100
12     C12     3.4337   -2.9802    3.5900 C.ar     1 ZINC000000027361   -0.1300
13     C13     2.1262   -2.6849    3.2521 C.ar     1 ZINC000000027361   -0.0900
14     C14     0.0233   -0.8162    1.0703 C.2      1 ZINC000000027361    0.6800
15     O15     0.0228   -0.3770    2.2051 O.2      1 ZINC000000027361   -0.5200
16     H16     1.0048    1.8381    0.0023 H        1 ZINC000000027361    0.0800
17     H17    -0.5450    1.8219   -0.8730 H        1 ZINC000000027361    0.0900
18     H18    -0.5280    1.8123    0.9069 H        1 ZINC000000027361    0.1000
19     H19    -0.4623   -2.6986    2.7838 H        1 ZINC000000027361    0.1100
20     H20    -0.4498   -4.0148    1.5856 H        1 ZINC000000027361    0.1100
21     H21     1.6414   -5.0265    0.8731 H        1 ZINC000000027361    0.1300
22     H22     3.9728   -5.5477    1.4698 H        1 ZINC000000027361    0.1300
23     H23     5.1205   -4.2375    3.2104 H        1 ZINC000000027361    0.1200
24     H24     3.9370   -2.4056    4.3536 H        1 ZINC000000027361    0.1300
25     H25     1.6071   -1.8815    3.7535 H        1 ZINC000000027361    0.1300
@<TRIPOS>BOND
1     1     2     1
2     1     16    1
3     1     17    1
4     1     18    1
5     2     14    am
6     2     3     1
7     3     4     1
8     4     5     2
9     4     6     am
10    6     7     1
11    6     14    am
12    7     8     1
13    7     19    1
14    7     20    1
15    8     13    ar
16    8     9     ar
17    9     10    ar
18    9     21    1
19    10    11    ar
20    10    22    1
21    11    12    ar
22    11    23    1
23    12    13    ar
24    12    24    1
25    13    25    1
26    14    15    2
@<TRIPOS>SUBSTRUCTURE
1   ZINC000000027361 1     RESIDUE    1   A     ZIN   1


@<TRIPOS>MOLECULE
CN1C=C(C2=CC=CC=C21)C3=C(C(=O)NC3=O)C4=C(C=C(C=C4)Cl)Cl
  37   40    0    0    0
SMALL
USER_CHARGES
NO_NAME
@<TRIPOS>ATOM
    1 C1       -0.0178     1.4608     0.0101 C.3    1 <0>       0.0700
    2 N2        0.0021    -0.0041     0.0020 N.pl3  1 <0>      -0.4700
    3 C3        0.0078    -0.7727    -1.1169 C.2    1 <0>       0.1100
    4 C4        0.0278    -2.0944    -0.7674 C.2    1 <0>      -0.1600
    5 C5        0.0402    -3.2453    -1.6802 C.2    1 <0>       0.0100
    6 C6        1.1164    -3.7097    -2.4247 C.2    1 <0>      -0.1000
    7 C7        2.4806    -3.1453    -2.4587 C.ar   1 <0>      -0.0200
    8 C8        3.3549    -3.3581    -1.3901 C.ar   1 <0>      -0.0600
    9 C9        4.6275    -2.8283    -1.4280 C.ar   1 <0>      -0.1000
   10 C10       5.0402    -2.0858    -2.5222 C.ar   1 <0>      -0.0100
   11 Cl11      6.6439    -1.4223    -2.5607 Cl     1 <0>      -0.0500
   12 C12       4.1794    -1.8708    -3.5858 C.ar   1 <0>      -0.1000
   13 C13       2.9052    -2.4000    -3.5636 C.ar   1 <0>       0.0000
   14 Cl14      1.8274    -2.1303    -4.8975 Cl     1 <0>      -0.0500
   15 C15       0.6235    -4.8799    -3.1740 C.2    1 <0>       0.5600
   16 O16       1.2804    -5.5582    -3.9390 O.2    1 <0>      -0.4400
   17 N17      -0.6712    -5.0735    -2.8715 N.am   1 <0>      -0.6900
   18 C18      -1.0924    -4.1515    -1.9890 C.2    1 <0>       0.5500
   19 O19      -2.2129    -4.0695    -1.5286 O.2    1 <0>      -0.4400
   20 C20       0.0348    -2.1366     0.7062 C.ar   1 <0>      -0.0700
   21 C21       0.0532    -3.1664     1.6433 C.ar   1 <0>      -0.0800
   22 C22       0.0549    -2.8650     2.9883 C.ar   1 <0>      -0.1300
   23 C23       0.0379    -1.5437     3.4093 C.ar   1 <0>      -0.1000
   24 C24       0.0192    -0.5145     2.4923 C.ar   1 <0>      -0.1200
   25 C25       0.0236    -0.7978     1.1309 C.ar   1 <0>       0.0900
   26 H26       1.0048     1.8381     0.0023 H      1 <0>       0.0800
   27 H27      -0.5450     1.8219    -0.8730 H      1 <0>       0.0900
   28 H28      -0.5280     1.8123     0.9069 H      1 <0>       0.0900
   29 H29      -0.0022    -0.3972    -2.1295 H      1 <0>       0.1700
   30 H30       3.0346    -3.9361    -0.5359 H      1 <0>       0.1500
   31 H31       5.3040    -2.9924    -0.6023 H      1 <0>       0.1500
   32 H32       4.5075    -1.2913    -4.4360 H      1 <0>       0.1500
   33 H33      -1.2239    -5.7822    -3.2365 H      1 <0>       0.4300
   34 H34       0.0658    -4.1961     1.3179 H      1 <0>       0.1200
   35 H35       0.0692    -3.6614     3.7176 H      1 <0>       0.1300
   36 H36       0.0391    -1.3189     4.4656 H      1 <0>       0.1300
   37 H37       0.0054     0.5109     2.8310 H      1 <0>       0.1200
@<TRIPOS>BOND
   1    1    2 1
   2    1   26 1
   3    1   27 1
   4    1   28 1
   5    2   25 1
   6    2    3 1
   7    3    4 2
   8    3   29 1
   9    4    5 1
  10    4   20 1
  11    5   18 1
  12    5    6 2
  13    6    7 1
  14    6   15 1
  15    7   13 ar
  16    7    8 ar
  17    8    9 ar
  18    8   30 1
  19    9   10 ar
  20    9   31 1
  21   10   11 1
  22   10   12 ar
  23   12   13 ar
  24   12   32 1
  25   13   14 1
  26   15   16 2
  27   15   17 am
  28   17   18 am
  29   17   33 1
  30   18   19 2
  31   20   25 ar
  32   20   21 ar
  33   21   22 ar
  34   21   34 1
  35   22   23 ar
  36   22   35 1
  37   23   24 ar
  38   23   36 1
  39   24   25 ar
  40   24   37 1


@<TRIPOS>MOLECULE
COC1=C(C(=C2C=C(C(=O)NC2=C1)CN3CC4=CC=CC=C4C3)OC)OC
49    52    1     0     0
SMALL
USER_CHARGES
@<TRIPOS>ATOM
1      C1     -0.2767    1.4771    0.2938 C.3      1 ZINC000067773573    0.0200
2      O2     -0.1845    0.0549    0.1901 O.3      1 ZINC000067773573   -0.2900
3      C3     -1.3520   -0.6343    0.1069 C.ar     1 ZINC000067773573    0.1900
4      C4     -2.5555    0.0501    0.1196 C.ar     1 ZINC000067773573   -0.2600
5      C5     -3.7529   -0.6469    0.0350 C.ar     1 ZINC000067773573    0.2400
6      C6     -3.7375   -2.0522   -0.0641 C.ar     1 ZINC000067773573   -0.1700
7      C7     -4.9632   -2.7569   -0.1496 C.2      1 ZINC000067773573    0.0000
8      C8     -6.1291   -2.0625   -0.1342 C.2      1 ZINC000067773573   -0.1900
9      C9     -7.4412   -2.7983   -0.2238 C.3      1 ZINC000067773573    0.1000
10     N10    -7.9664   -3.0293    1.1285 N.3      1 ZINC000067773573   -0.4800
11     C11    -6.9909   -3.7905    1.9570 C.3      1 ZINC000067773573    0.0700
12     C12    -7.8510   -4.4916    2.9891 C.ar     1 ZINC000067773573   -0.1000
13     C13    -7.5694   -4.9951    4.2420 C.ar     1 ZINC000067773573   -0.1000
14     C14    -8.5685   -5.5995    4.9837 C.ar     1 ZINC000067773573   -0.1200
15     C15    -9.8477   -5.6992    4.4697 C.ar     1 ZINC000067773573   -0.1200
16     C16   -10.1305   -5.1940    3.2134 C.ar     1 ZINC000067773573   -0.1000
17     C17    -9.1344   -4.5913    2.4736 C.ar     1 ZINC000067773573   -0.1000
18     C18    -9.1310   -3.9568    1.0974 C.3      1 ZINC000067773573    0.0700
19     C19    -6.1189   -0.6572   -0.0344 C.2      1 ZINC000067773573    0.5500
20     O20    -7.1753   -0.0486   -0.0215 O.2      1 ZINC000067773573   -0.5200
21     N21    -4.9606    0.0239    0.0475 N.am     1 ZINC000067773573   -0.6300
22     C22    -2.5102   -2.7386   -0.0767 C.ar     1 ZINC000067773573    0.1800
23     O23    -2.4858   -4.0935   -0.1721 O.3      1 ZINC000067773573   -0.3200
24     C24    -2.4235   -4.8289    1.0515 C.3      1 ZINC000067773573    0.0400
25     C25    -1.3281   -2.0255    0.0037 C.ar     1 ZINC000067773573    0.0200
26     O26    -0.1366   -2.6843   -0.0081 O.3      1 ZINC000067773573   -0.3100
27     C27     0.4650   -2.9143   -1.2837 C.3      1 ZINC000067773573    0.0400
28     H28     0.7250    1.9028    0.3527 H        1 ZINC000067773573    0.1100
29     H29    -0.7886    1.8730   -0.5834 H        1 ZINC000067773573    0.0600
30     H30    -0.8368    1.7404    1.1910 H        1 ZINC000067773573    0.0600
31     H31    -2.5627    1.1274    0.1957 H        1 ZINC000067773573    0.1500
32     H32    -4.9699   -3.8342   -0.2264 H        1 ZINC000067773573    0.1400
33     H33    -8.1540   -2.2020   -0.7934 H        1 ZINC000067773573    0.1000
34     H34    -7.2878   -3.7553   -0.7224 H        1 ZINC000067773573    0.0500
35     H35    -6.4575   -4.5188    1.3461 H        1 ZINC000067773573    0.0600
36     H36    -6.2900   -3.1111    2.4421 H        1 ZINC000067773573    0.0900
37     H37    -6.5698   -4.9178    4.6435 H        1 ZINC000067773573    0.1200
38     H38    -8.3488   -5.9939    5.9648 H        1 ZINC000067773573    0.1300
39     H39   -10.6269   -6.1716    5.0495 H        1 ZINC000067773573    0.1300
40     H40   -11.1300   -5.2721    2.8119 H        1 ZINC000067773573    0.1200
41     H41   -10.0552   -3.4038    0.9297 H        1 ZINC000067773573    0.1000
42     H42    -8.9941   -4.7159    0.3273 H        1 ZINC000067773573    0.0600
43     H43    -4.9741    0.9914    0.1156 H        1 ZINC000067773573    0.4200
44     H44    -3.3215   -4.6351    1.6381 H        1 ZINC000067773573    0.0500
45     H45    -2.3559   -5.8944    0.8320 H        1 ZINC000067773573    0.1000
46     H46    -1.5455   -4.5182    1.6179 H        1 ZINC000067773573    0.0600
47     H47    -0.1782   -3.5642   -1.8769 H        1 ZINC000067773573    0.0500
48     H48     0.5964   -1.9635   -1.8002 H        1 ZINC000067773573    0.0500
49     H49     1.4359   -3.3906   -1.1469 H        1 ZINC000067773573    0.1000
@<TRIPOS>BOND
1     1     2     1
2     1     28    1
3     1     29    1
4     1     30    1
5     2     3     1
6     3     25    ar
7     3     4     ar
8     4     5     ar
9     4     31    1
10    5     21    1
11    5     6     ar
12    6     7     1
13    6     22    ar
14    7     8     2
15    7     32    1
16    8     9     1
17    8     19    1
18    9     10    1
19    9     33    1
20    9     34    1
21    10    18    1
22    10    11    1
23    11    12    1
24    11    35    1
25    11    36    1
26    12    17    ar
27    12    13    ar
28    13    14    ar
29    13    37    1
30    14    15    ar
31    14    38    1
32    15    16    ar
33    15    39    1
34    16    17    ar
35    16    40    1
36    17    18    1
37    18    41    1
38    18    42    1
39    19    20    2
40    19    21    am
41    21    43    1
42    22    23    1
43    22    25    ar
44    23    24    1
45    24    44    1
46    24    45    1
47    24    46    1
48    25    26    1
49    26    27    1
50    27    47    1
51    27    48    1
52    27    49    1
@<TRIPOS>SUBSTRUCTURE
1   ZINC000067773573 1     RESIDUE    1   A     ZIN   1


@<TRIPOS>MOLECULE
C1=CC=C(C=C1)CN2C(=O)N(SC2=O)C3=CC=CC4=CC=CC=C43
38    41    1     0     0
SMALL
USER_CHARGES
@<TRIPOS>ATOM
1      O1      0.0021   -0.0041    0.0020 O.2      1 ZINC000013985228   -0.4300
2      C2     -0.0144    1.2129    0.0087 C.2      1 ZINC000013985228    0.4800
3      S3     -1.3999    2.2343    0.0350 S.3      1 ZINC000013985228    0.2300
4      N4     -0.5194    3.6863    0.0305 N.am     1 ZINC000013985228   -0.5700
5      C5     -1.0376    4.9804    0.0460 C.ar     1 ZINC000013985228    0.1500
6      C6     -1.3778    5.5967    1.2695 C.ar     1 ZINC000013985228   -0.0300
7      C7     -1.2052    4.9311    2.4929 C.ar     1 ZINC000013985228   -0.1100
8      C8     -1.5438    5.5565    3.6542 C.ar     1 ZINC000013985228   -0.1000
9      C9     -2.0610    6.8503    3.6471 C.ar     1 ZINC000013985228   -0.1100
10     C10    -2.2424    7.5258    2.4795 C.ar     1 ZINC000013985228   -0.1000
11     C11    -1.9031    6.9124    1.2610 C.ar     1 ZINC000013985228   -0.0500
12     C12    -2.0763    7.5801    0.0368 C.ar     1 ZINC000013985228   -0.0700
13     C13    -1.7388    6.9621   -1.1289 C.ar     1 ZINC000013985228   -0.1200
14     C14    -1.2173    5.6722   -1.1334 C.ar     1 ZINC000013985228   -0.0700
15     C15     0.7762    3.3367    0.0094 C.2      1 ZINC000013985228    0.6900
16     O16     1.6617    4.1712    0.0016 O.2      1 ZINC000013985228   -0.5100
17     N17     1.0451    2.0394    0.0030 N.am     1 ZINC000013985228   -0.5600
18     C18     2.4201    1.5344   -0.0195 C.3      1 ZINC000013985228    0.1600
19     C19     2.9141    1.3589    1.3934 C.ar     1 ZINC000013985228   -0.1300
20     C20     3.5483    2.4040    2.0387 C.ar     1 ZINC000013985228   -0.0900
21     C21     4.0013    2.2430    3.3347 C.ar     1 ZINC000013985228   -0.1200
22     C22     3.8198    1.0370    3.9856 C.ar     1 ZINC000013985228   -0.1100
23     C23     3.1848   -0.0078    3.3406 C.ar     1 ZINC000013985228   -0.1200
24     C24     2.7279    0.1546    2.0460 C.ar     1 ZINC000013985228   -0.0900
25     H25    -0.8061    3.9278    2.5133 H        1 ZINC000013985228    0.1200
26     H26    -1.4100    5.0420    4.5943 H        1 ZINC000013985228    0.1300
27     H27    -2.3222    7.3240    4.5819 H        1 ZINC000013985228    0.1300
28     H28    -2.6449    8.5280    2.4891 H        1 ZINC000013985228    0.1300
29     H29    -2.4773    8.5828    0.0203 H        1 ZINC000013985228    0.1400
30     H30    -1.8758    7.4828   -2.0651 H        1 ZINC000013985228    0.1400
31     H31    -0.9574    5.2047   -2.0716 H        1 ZINC000013985228    0.1300
32     H32     2.4462    0.5745   -0.5354 H        1 ZINC000013985228    0.1100
33     H33     3.0598    2.2454   -0.5424 H        1 ZINC000013985228    0.1100
34     H34     3.6901    3.3461    1.5302 H        1 ZINC000013985228    0.1300
35     H35     4.4975    3.0593    3.8386 H        1 ZINC000013985228    0.1300
36     H36     4.1744    0.9110    4.9979 H        1 ZINC000013985228    0.1200
37     H37     3.0433   -0.9501    3.8490 H        1 ZINC000013985228    0.1300
38     H38     2.2318   -0.6617    1.5421 H        1 ZINC000013985228    0.1300
@<TRIPOS>BOND
1     1     2     2
2     2     17    am
3     2     3     1
4     3     4     1
5     4     5     1
6     4     15    am
7     5     14    ar
8     5     6     ar
9     6     11    ar
10    6     7     ar
11    7     8     ar
12    7     25    1
13    8     9     ar
14    8     26    1
15    9     10    ar
16    9     27    1
17    10    11    ar
18    10    28    1
19    11    12    ar
20    12    13    ar
21    12    29    1
22    13    14    ar
23    13    30    1
24    14    31    1
25    15    16    2
26    15    17    am
27    17    18    1
28    18    19    1
29    18    32    1
30    18    33    1
31    19    24    ar
32    19    20    ar
33    20    21    ar
34    20    34    1
35    21    22    ar
36    21    35    1
37    22    23    ar
38    22    36    1
39    23    24    ar
40    23    37    1
41    24    38    1
@<TRIPOS>SUBSTRUCTURE
1   ZINC000013985228 1     RESIDUE    1   A     ZIN   1


@<TRIPOS>MOLECULE
C1CCN(CC1)C(=O)N2CCN3C=C(C4=CC(=CC(=C43)C2)F)C5=C(C(=O)NC5=O)C6=CN=C7N6C=CC=C7
63    69    1     0     0
SMALL
USER_CHARGES
@<TRIPOS>ATOM
1      O1      1.3444    2.7865   -0.1232 O.2      1 ZINC000003817327   -0.5700
2      C2      0.3634    2.0695   -0.0796 C.2      1 ZINC000003817327    0.7100
3      N3      0.4911    0.7732    0.2666 N.am     1 ZINC000003817327   -0.6300
4      C4      1.7882    0.0925    0.1535 C.3      1 ZINC000003817327    0.1300
5      C5      2.1303   -0.5442    1.5042 C.3      1 ZINC000003817327   -0.1400
6      C6      0.9793   -1.4534    1.9412 C.3      1 ZINC000003817327   -0.1200
7      C7     -0.2947   -0.6219    2.1079 C.3      1 ZINC000003817327   -0.1400
8      C8     -0.6628    0.0156    0.7698 C.3      1 ZINC000003817327    0.0800
9      N9     -0.8524    2.5723   -0.3720 N.am     1 ZINC000003817327   -0.6200
10     C10    -1.9984    1.6734   -0.4374 C.3      1 ZINC000003817327    0.0800
11     C11    -3.0448    2.1184   -1.4483 C.3      1 ZINC000003817327    0.1000
12     N12    -2.4181    2.3416   -2.7594 N.pl3    1 ZINC000003817327   -0.4700
13     C13    -2.6391    1.6731   -3.9203 C.2      1 ZINC000003817327    0.1200
14     C14    -1.9918    2.3018   -4.9451 C.2      1 ZINC000003817327   -0.1500
15     C15    -2.0099    1.9129   -6.3670 C.2      1 ZINC000003817327   -0.0100
16     C16    -3.0535    2.1001   -7.2751 C.2      1 ZINC000003817327   -0.0400
17     C17    -4.3506    2.7212   -7.0104 C.2      1 ZINC000003817327   -0.0500
18     C18    -4.5756    4.0082   -6.5407 C.2      1 ZINC000003817327    0.1100
19     N19    -5.8834    4.1873   -6.4350 N.2      1 ZINC000003817327   -0.4900
20     C20    -6.5220    3.0814   -6.8123 C.2      1 ZINC000003817327    0.2400
21     C21    -7.8902    2.7664   -6.8830 C.2      1 ZINC000003817327   -0.0800
22     C22    -8.2712    1.5306   -7.3158 C.2      1 ZINC000003817327   -0.0900
23     C23    -7.2959    0.5928   -7.6836 C.2      1 ZINC000003817327   -0.1300
24     C24    -5.9839    0.9121   -7.6091 C.2      1 ZINC000003817327    0.0600
25     N25    -5.5935    2.1458   -7.1837 N.pl3    1 ZINC000003817327   -0.3400
26     C26    -2.5788    1.5413   -8.5603 C.2      1 ZINC000003817327    0.5600
27     O27    -3.2076    1.5173   -9.5993 O.2      1 ZINC000003817327   -0.4500
28     N28    -1.3345    1.0652   -8.3846 N.am     1 ZINC000003817327   -0.6900
29     C29    -0.9288    1.2545   -7.1180 C.2      1 ZINC000003817327    0.5500
30     O30     0.1508    0.9279   -6.6644 O.2      1 ZINC000003817327   -0.4400
31     C31    -1.2730    3.4431   -4.3558 C.ar     1 ZINC000003817327   -0.0400
32     C32    -0.5047    4.4926   -4.8571 C.ar     1 ZINC000003817327   -0.1100
33     C33     0.0430    5.4125   -3.9849 C.ar     1 ZINC000003817327    0.0900
34     F34     0.7703    6.4419   -4.4714 F        1 ZINC000003817327   -0.1400
35     C35    -0.1450    5.2929   -2.6115 C.ar     1 ZINC000003817327   -0.1200
36     C36    -0.8916    4.2519   -2.1065 C.ar     1 ZINC000003817327   -0.0800
37     C37    -1.4963    3.3610   -2.9758 C.ar     1 ZINC000003817327    0.1000
38     C38    -0.9944    4.0164   -0.6120 C.3      1 ZINC000003817327    0.1800
39     H39     1.7290   -0.6821   -0.6110 H        1 ZINC000003817327    0.0600
40     H40     2.5583    0.8157   -0.1150 H        1 ZINC000003817327    0.0900
41     H41     3.0426   -1.1330    1.4083 H        1 ZINC000003817327    0.0800
42     H42     2.2783    0.2384    2.2483 H        1 ZINC000003817327    0.0700
43     H43     0.8156   -2.2209    1.1848 H        1 ZINC000003817327    0.0600
44     H44     1.2307   -1.9268    2.8902 H        1 ZINC000003817327    0.0700
45     H45    -1.1083   -1.2659    2.4417 H        1 ZINC000003817327    0.0800
46     H46    -0.1238    0.1615    2.8463 H        1 ZINC000003817327    0.0700
47     H47    -1.5110    0.6866    0.9058 H        1 ZINC000003817327    0.1100
48     H48    -0.9219   -0.7634    0.0529 H        1 ZINC000003817327    0.0700
49     H49    -1.6484    0.6777   -0.7098 H        1 ZINC000003817327    0.1000
50     H50    -2.4615    1.6228    0.5480 H        1 ZINC000003817327    0.0900
51     H51    -3.8098    1.3473   -1.5399 H        1 ZINC000003817327    0.1100
52     H52    -3.5069    3.0445   -1.1063 H        1 ZINC000003817327    0.0900
53     H53    -3.2365    0.7788   -4.0183 H        1 ZINC000003817327    0.1700
54     H54    -3.8153    4.7374   -6.3027 H        1 ZINC000003817327    0.1900
55     H55    -8.6329    3.4964   -6.5969 H        1 ZINC000003817327    0.1600
56     H56    -9.3190    1.2754   -7.3746 H        1 ZINC000003817327    0.1500
57     H57    -7.5931   -0.3871   -8.0269 H        1 ZINC000003817327    0.1600
58     H58    -5.2389    0.1839   -7.8939 H        1 ZINC000003817327    0.1600
59     H59    -0.8010    0.6462   -9.0780 H        1 ZINC000003817327    0.4300
60     H60    -0.3386    4.5855   -5.9202 H        1 ZINC000003817327    0.1300
61     H61     0.2949    6.0165   -1.9413 H        1 ZINC000003817327    0.1400
62     H62    -1.9649    4.3577   -0.2517 H        1 ZINC000003817327    0.0900
63     H63    -0.1997    4.5579   -0.0988 H        1 ZINC000003817327    0.1100
@<TRIPOS>BOND
1     1     2     2
2     2     3     am
3     2     9     am
4     3     8     1
5     3     4     1
6     4     5     1
7     4     39    1
8     4     40    1
9     5     6     1
10    5     41    1
11    5     42    1
12    6     7     1
13    6     43    1
14    6     44    1
15    7     8     1
16    7     45    1
17    7     46    1
18    8     47    1
19    8     48    1
20    9     38    1
21    9     10    1
22    10    11    1
23    10    49    1
24    10    50    1
25    11    12    1
26    11    51    1
27    11    52    1
28    12    37    1
29    12    13    1
30    13    14    2
31    13    53    1
32    14    15    1
33    14    31    1
34    15    29    1
35    15    16    2
36    16    17    1
37    16    26    1
38    17    25    1
39    17    18    2
40    18    19    1
41    18    54    1
42    19    20    2
43    20    25    1
44    20    21    1
45    21    22    2
46    21    55    1
47    22    23    1
48    22    56    1
49    23    24    2
50    23    57    1
51    24    25    1
52    24    58    1
53    26    27    2
54    26    28    am
55    28    29    am
56    28    59    1
57    29    30    2
58    31    37    ar
59    31    32    ar
60    32    33    ar
61    32    60    1
62    33    34    1
63    33    35    ar
64    35    36    ar
65    35    61    1
66    36    37    ar
67    36    38    1
68    38    62    1
69    38    63    1
@<TRIPOS>SUBSTRUCTURE
1   ZINC000003817327 1     RESIDUE    1   A     ZIN   1


@<TRIPOS>MOLECULE
C1=CC=C2C(=C1)C(=CC3=CC=CC=N3)C(=O)N2
  27   29    0    0    0
SMALL
USER_CHARGES
NO_NAME
@<TRIPOS>ATOM
    1 O1        0.0375     0.0740     0.6506 O.2    1 <0>      -0.4300
    2 C2        0.0041     1.2534     0.3532 C.2    1 <0>       0.5400
    3 N3       -1.0981     2.0181     0.2730 N.am   1 <0>      -0.6600
    4 C4       -0.7859     3.3229    -0.0923 C.ar   1 <0>       0.1600
    5 C5       -1.5855     4.4419    -0.2949 C.ar   1 <0>      -0.1500
    6 C6       -1.0147     5.6445    -0.6615 C.ar   1 <0>      -0.0800
    7 C7        0.3550     5.7523    -0.8318 C.ar   1 <0>      -0.1500
    8 C8        1.1654     4.6517    -0.6351 C.ar   1 <0>      -0.0600
    9 C9        0.6001     3.4363    -0.2657 C.ar   1 <0>      -0.1200
   10 C10       1.1684     2.0997     0.0227 C.2    1 <0>      -0.1200
   11 C11       2.4783     1.7307    -0.0118 C.2    1 <0>       0.0000
   12 C12       2.8450     0.3108     0.0918 C.ar   1 <0>       0.1100
   13 C13       4.1917    -0.0534     0.1826 C.ar   1 <0>      -0.1500
   14 C14       4.5196    -1.3949     0.2800 C.ar   1 <0>      -0.0900
   15 C15       3.4942    -2.3292     0.2838 C.ar   1 <0>      -0.1600
   16 C16       2.1801    -1.8987     0.1907 C.ar   1 <0>       0.1000
   17 N17       1.8924    -0.6185     0.1041 N.ar   1 <0>      -0.4100
   18 H18      -1.9976     1.7000     0.4476 H      1 <0>       0.4200
   19 H19      -2.6553     4.3704    -0.1655 H      1 <0>       0.1300
   20 H20      -1.6427     6.5091    -0.8174 H      1 <0>       0.1300
   21 H21       0.7900     6.6981    -1.1191 H      1 <0>       0.1300
   22 H22       2.2340     4.7346    -0.7679 H      1 <0>       0.1300
   23 H23       3.2481     2.4811    -0.1153 H      1 <0>       0.1500
   24 H24       4.9649     0.7006     0.1764 H      1 <0>       0.1400
   25 H25       5.5511    -1.7072     0.3511 H      1 <0>       0.1400
   26 H26       3.7181    -3.3831     0.3582 H      1 <0>       0.1400
   27 H27       1.3807    -2.6249     0.1935 H      1 <0>       0.1600
@<TRIPOS>BOND
   1    1    2 2
   2    2   10 1
   3    2    3 am
   4    3    4 1
   5    3   18 1
   6    4    9 ar
   7    4    5 ar
   8    5    6 ar
   9    5   19 1
  10    6    7 ar
  11    6   20 1
  12    7    8 ar
  13    7   21 1
  14    8    9 ar
  15    8   22 1
  16    9   10 1
  17   10   11 2
  18   11   12 1
  19   11   23 1
  20   12   17 ar
  21   12   13 ar
  22   13   14 ar
  23   13   24 1
  24   14   15 ar
  25   14   25 1
  26   15   16 ar
  27   15   26 1
  28   16   17 ar
  29   16   27 1


@<TRIPOS>MOLECULE
CN1CCN(CC1)S(=O)(=O)C2=CC=C(C=C2)C3=CN=C(C(=N3)C(=O)NC4=CN=CC=C4)N
55    58    1     0     0
SMALL
USER_CHARGES
@<TRIPOS>ATOM
1      C1      0.8808    1.4781    0.2589 C.3      1 ZINC000034299752    0.0200
2      N2      0.8024    0.0116    0.2264 N.3      1 ZINC000034299752   -0.5400
3      C3     -0.5950   -0.4402    0.1910 C.3      1 ZINC000034299752    0.0400
4      C4     -0.6326   -1.9569   -0.0244 C.3      1 ZINC000034299752    0.1200
5      N5      0.2017   -2.5959    1.0046 N.am     1 ZINC000034299752   -1.0000
6      S6     -0.3884   -3.8388    1.9262 S.o2     1 ZINC000034299752    2.6900
7      O7      0.3813   -3.8531    3.1207 O.2      1 ZINC000034299752   -0.9500
8      O8     -1.8035   -3.7099    1.9150 O.2      1 ZINC000034299752   -0.9500
9      C9     -0.0186   -5.3382    1.0780 C.ar     1 ZINC000034299752   -0.6700
10     C10    -0.9199   -5.8528    0.1635 C.ar     1 ZINC000034299752   -0.0100
11     C11    -0.6353   -7.0267   -0.5041 C.ar     1 ZINC000034299752   -0.1300
12     C12     0.5628   -7.6938   -0.2555 C.ar     1 ZINC000034299752    0.0300
13     C13     0.8746   -8.9556   -0.9703 C.ar     1 ZINC000034299752    0.0300
14     C14     0.0183   -9.4188   -1.9741 C.ar     1 ZINC000034299752    0.1700
15     N15     0.2903  -10.5401   -2.6131 N.ar     1 ZINC000034299752   -0.5000
16     C16     1.3803  -11.2346   -2.3051 C.ar     1 ZINC000034299752    0.4200
17     N17     1.6652  -12.4094   -2.9754 N.pl3    1 ZINC000034299752   -0.8000
18     C18     2.2431  -10.7723   -1.2970 C.ar     1 ZINC000034299752   -0.0500
19     C19     3.4566  -11.5402   -0.9509 C.2      1 ZINC000034299752    0.6000
20     O20     3.7616  -12.5210   -1.6015 O.2      1 ZINC000034299752   -0.5200
21     N21     4.2258  -11.1535    0.0861 N.am     1 ZINC000034299752   -0.6400
22     C22     5.4362  -11.8064    0.3405 C.ar     1 ZINC000034299752    0.0900
23     C23     6.1263  -12.4420   -0.6886 C.ar     1 ZINC000034299752   -0.0900
24     C24     7.3210  -13.0751   -0.3870 C.ar     1 ZINC000034299752   -0.1500
25     C25     7.7856  -13.0557    0.9148 C.ar     1 ZINC000034299752    0.0800
26     N26     7.1081  -12.4447    1.8672 N.ar     1 ZINC000034299752   -0.4600
27     C27     5.9708  -11.8256    1.6226 C.ar     1 ZINC000034299752    0.0800
28     N28     1.9672   -9.6390   -0.6600 N.ar     1 ZINC000034299752   -0.3600
29     C29     1.4672   -7.1707    0.6670 C.ar     1 ZINC000034299752   -0.1100
30     C30     1.1744   -5.9933    1.3249 C.ar     1 ZINC000034299752   -0.0200
31     C31     1.5742   -2.1020    1.1931 C.3      1 ZINC000034299752    0.1200
32     C32     1.5250   -0.5795    1.3606 C.3      1 ZINC000034299752    0.0400
33     H33     1.9248    1.7873    0.2076 H        1 ZINC000034299752    0.0700
34     H34     0.3377    1.8899   -0.5917 H        1 ZINC000034299752    0.0700
35     H35     0.4382    1.8452    1.1849 H        1 ZINC000034299752    0.0300
36     H36    -1.0806   -0.1949    1.1355 H        1 ZINC000034299752    0.0400
37     H37    -1.1172    0.0564   -0.6267 H        1 ZINC000034299752    0.0900
38     H38    -1.6589   -2.3138    0.0628 H        1 ZINC000034299752    0.1000
39     H39    -0.2416   -2.1961   -1.0133 H        1 ZINC000034299752    0.0800
40     H40    -1.8482   -5.3352   -0.0282 H        1 ZINC000034299752    0.1500
41     H41    -1.3398   -7.4277   -1.2177 H        1 ZINC000034299752    0.1400
42     H42    -0.8687   -8.8569   -2.2266 H        1 ZINC000034299752    0.1800
43     H43     1.0324  -12.7669   -3.6179 H        1 ZINC000034299752    0.4100
44     H44     2.4978  -12.8763   -2.8033 H        1 ZINC000034299752    0.4300
45     H45     3.9400  -10.4224    0.6559 H        1 ZINC000034299752    0.4300
46     H46     5.7394  -12.4416   -1.6970 H        1 ZINC000034299752    0.1500
47     H47     7.8828  -13.5784   -1.1600 H        1 ZINC000034299752    0.1400
48     H48     8.7163  -13.5481    1.1554 H        1 ZINC000034299752    0.1600
49     H49     5.4445  -11.3359    2.4286 H        1 ZINC000034299752    0.1600
50     H50     2.3970   -7.6837    0.8638 H        1 ZINC000034299752    0.1400
51     H51     1.8745   -5.5870    2.0399 H        1 ZINC000034299752    0.1400
52     H52     2.0070   -2.5547    2.0852 H        1 ZINC000034299752    0.1000
53     H53     2.1774   -2.3551    0.3212 H        1 ZINC000034299752    0.0800
54     H54     2.5402   -0.1840    1.3910 H        1 ZINC000034299752    0.0900
55     H55     1.0099   -0.3322    2.2888 H        1 ZINC000034299752    0.0400
@<TRIPOS>BOND
1     1     2     1
2     1     33    1
3     1     34    1
4     1     35    1
5     2     32    1
6     2     3     1
7     3     4     1
8     3     36    1
9     3     37    1
10    4     5     1
11    4     38    1
12    4     39    1
13    5     6     am
14    5     31    1
15    6     7     2
16    6     8     2
17    6     9     1
18    9     30    ar
19    9     10    ar
20    10    11    ar
21    10    40    1
22    11    12    ar
23    11    41    1
24    12    13    1
25    12    29    ar
26    13    28    ar
27    13    14    ar
28    14    15    ar
29    14    42    1
30    15    16    ar
31    16    17    1
32    16    18    ar
33    17    43    1
34    17    44    1
35    18    19    1
36    18    28    ar
37    19    20    2
38    19    21    am
39    21    22    1
40    21    45    1
41    22    27    ar
42    22    23    ar
43    23    24    ar
44    23    46    1
45    24    25    ar
46    24    47    1
47    25    26    ar
48    25    48    1
49    26    27    ar
50    27    49    1
51    29    30    ar
52    29    50    1
53    30    51    1
54    31    32    1
55    31    52    1
56    31    53    1
57    32    54    1
58    32    55    1
@<TRIPOS>SUBSTRUCTURE
1   ZINC000034299752 1     RESIDUE    1   A     ZIN   1


@<TRIPOS>MOLECULE
CC1=CC(=NC(=N1)N2C(=CC(=N2)C)C)NC3CCCCC3
44    46    1     0     0
SMALL
USER_CHARGES
@<TRIPOS>ATOM
1      C1     -0.0184    1.5028    0.0103 C.3      1 ZINC000000492516   -0.1000
2      C2      0.0021   -0.0041    0.0020 C.2      1 ZINC000000492516    0.1200
3      C3      0.0084   -0.7967   -1.0937 C.2      1 ZINC000000492516   -0.2600
4      C4      0.0282   -2.1287   -0.6631 C.2      1 ZINC000000492516    0.0900
5      C5      0.0418   -3.3435   -1.5548 C.3      1 ZINC000000492516   -0.0700
6      N6      0.0337   -2.1394    0.6446 N.2      1 ZINC000000492516   -0.2600
7      N7      0.0234   -0.8126    1.0944 N.pl3    1 ZINC000000492516   -0.3200
8      C8      0.0251   -0.3959    2.4255 C.ar     1 ZINC000000492516    0.6100
9      N9      0.0095    0.8991    2.6954 N.ar     1 ZINC000000492516   -0.5700
10     C10     0.0105    1.3346    3.9469 C.ar     1 ZINC000000492516    0.2300
11     C11    -0.0079    2.8129    4.2392 C.3      1 ZINC000000492516   -0.1100
12     C12     0.0281    0.4187    4.9805 C.ar     1 ZINC000000492516   -0.3100
13     C13     0.0443   -0.9417    4.6639 C.ar     1 ZINC000000492516    0.4700
14     N14     0.0618   -1.8969    5.6671 N.pl3    1 ZINC000000492516   -0.7000
15     C15     0.0634   -1.4832    7.0725 C.3      1 ZINC000000492516    0.1500
16     C16    -1.3746   -1.2374    7.5334 C.3      1 ZINC000000492516   -0.1400
17     C17    -1.3729   -0.8054    9.0011 C.3      1 ZINC000000492516   -0.1200
18     C18    -0.7445   -1.9074    9.8564 C.3      1 ZINC000000492516   -0.1200
19     C19     0.6935   -2.1532    9.3955 C.3      1 ZINC000000492516   -0.1200
20     C20     0.6918   -2.5852    7.9278 C.3      1 ZINC000000492516   -0.1300
21     N21     0.0368   -1.3060    3.3858 N.ar     1 ZINC000000492516   -0.5800
22     H22     1.0042    1.8801    0.0026 H        1 ZINC000000492516    0.0800
23     H23    -0.5455    1.8639   -0.8728 H        1 ZINC000000492516    0.0800
24     H24    -0.5286    1.8543    0.9071 H        1 ZINC000000492516    0.1000
25     H25    -0.0007   -0.4612   -2.1202 H        1 ZINC000000492516    0.1600
26     H26     1.0727   -3.6222   -1.7734 H        1 ZINC000000492516    0.0800
27     H27    -0.4589   -4.1700   -1.0506 H        1 ZINC000000492516    0.0800
28     H28    -0.4784   -3.1169   -2.4855 H        1 ZINC000000492516    0.0800
29     H29    -1.0399    3.1554    4.3153 H        1 ZINC000000492516    0.0900
30     H30     0.5085    3.0037    5.1799 H        1 ZINC000000492516    0.0800
31     H31     0.4943    3.3488    3.4338 H        1 ZINC000000492516    0.0900
32     H32     0.0297    0.7467    6.0095 H        1 ZINC000000492516    0.1500
33     H33     0.0730   -2.8397    5.4390 H        1 ZINC000000492516    0.4100
34     H34     0.6415   -0.5654    7.1804 H        1 ZINC000000492516    0.0900
35     H35    -1.8223   -0.4523    6.9240 H        1 ZINC000000492516    0.0700
36     H36    -1.9526   -2.1552    7.4255 H        1 ZINC000000492516    0.0700
37     H37    -0.7949    0.1124    9.1090 H        1 ZINC000000492516    0.0700
38     H38    -2.3974   -0.6302    9.3295 H        1 ZINC000000492516    0.0700
39     H39    -0.7433   -1.5996   10.9021 H        1 ZINC000000492516    0.0700
40     H40    -1.3226   -2.8252    9.7485 H        1 ZINC000000492516    0.0600
41     H41     1.2716   -1.2354    9.5034 H        1 ZINC000000492516    0.0700
42     H42     1.1412   -2.9383   10.0049 H        1 ZINC000000492516    0.0700
43     H43     0.1138   -3.5030    7.8199 H        1 ZINC000000492516    0.0700
44     H44     1.7163   -2.7604    7.5994 H        1 ZINC000000492516    0.0700
@<TRIPOS>BOND
1     1     2     1
2     1     22    1
3     1     23    1
4     1     24    1
5     2     7     1
6     2     3     2
7     3     4     1
8     3     25    1
9     4     5     1
10    4     6     2
11    5     26    1
12    5     27    1
13    5     28    1
14    6     7     1
15    7     8     1
16    8     21    ar
17    8     9     ar
18    9     10    ar
19    10    11    1
20    10    12    ar
21    11    29    1
22    11    30    1
23    11    31    1
24    12    13    ar
25    12    32    1
26    13    14    1
27    13    21    ar
28    14    15    1
29    14    33    1
30    15    20    1
31    15    16    1
32    15    34    1
33    16    17    1
34    16    35    1
35    16    36    1
36    17    18    1
37    17    37    1
38    17    38    1
39    18    19    1
40    18    39    1
41    18    40    1
42    19    20    1
43    19    41    1
44    19    42    1
45    20    43    1
46    20    44    1
@<TRIPOS>SUBSTRUCTURE
1   ZINC000000492516 1     RESIDUE    1   A     ZIN   1


@<TRIPOS>MOLECULE
C1=CC(=C(C=C1CC(C(=O)O)OC(=O)C=CC2=CC(=C(C=C2)O)O)O)O
41    42    1     0     0
SMALL
USER_CHARGES
@<TRIPOS>ATOM
1      O1      0.0021   -0.0041    0.0020 O.co2    1 ZINC000000899870   -0.6900
2      C2     -0.0145    1.2150    0.0087 C.2      1 ZINC000000899870    0.4900
3      O3      1.0330    1.8389    0.0021 O.co2    1 ZINC000000899870   -0.6800
4      C4     -1.3296    1.9507    0.0190 C.3      1 ZINC000000899870    0.0300
5      H5     -1.9385    1.6182   -0.8218 H        1 ZINC000000899870    0.0800
6      C6     -2.0662    1.6605    1.3283 C.3      1 ZINC000000899870   -0.0700
7      C7     -3.4323    2.2954    1.2875 C.ar     1 ZINC000000899870   -0.0600
8      C8     -3.6048    3.5900    1.7397 C.ar     1 ZINC000000899870   -0.1000
9      C9     -4.8564    4.1768    1.7048 C.ar     1 ZINC000000899870   -0.1300
10     C10    -5.9407    3.4671    1.2154 C.ar     1 ZINC000000899870    0.0700
11     O11    -7.1722    4.0429    1.1800 O.3      1 ZINC000000899870   -0.4900
12     C12    -5.7669    2.1635    0.7596 C.ar     1 ZINC000000899870    0.0800
13     O13    -6.8283    1.4628    0.2778 O.3      1 ZINC000000899870   -0.4900
14     C14    -4.5094    1.5833    0.7925 C.ar     1 ZINC000000899870   -0.1300
15     O15    -1.0907    3.3552   -0.0920 O.3      1 ZINC000000899870   -0.3200
16     C16    -1.0451    3.8723   -1.3374 C.2      1 ZINC000000899870    0.5000
17     O17    -1.2041    3.1491   -2.3025 O.2      1 ZINC000000899870   -0.5200
18     C18    -0.8118    5.2587   -1.5213 C.2      1 ZINC000000899870   -0.1700
19     C19    -0.7661    5.7764   -2.7682 C.2      1 ZINC000000899870   -0.0300
20     C20    -0.5244    7.2134   -2.9588 C.ar     1 ZINC000000899870   -0.0600
21     C21    -0.3354    8.0463   -1.8502 C.ar     1 ZINC000000899870   -0.0900
22     C22    -0.1090    9.3931   -2.0318 C.ar     1 ZINC000000899870   -0.1300
23     C23    -0.0680    9.9274   -3.3125 C.ar     1 ZINC000000899870    0.0900
24     O24     0.1552   11.2560   -3.4850 O.3      1 ZINC000000899870   -0.4900
25     C25    -0.2549    9.1038   -4.4226 C.ar     1 ZINC000000899870    0.0800
26     O26    -0.2134    9.6316   -5.6753 O.3      1 ZINC000000899870   -0.4900
27     C27    -0.4766    7.7522   -4.2503 C.ar     1 ZINC000000899870   -0.1100
28     H28    -2.1699    0.5830    1.4557 H        1 ZINC000000899870    0.1000
29     H29    -1.4990    2.0722    2.1631 H        1 ZINC000000899870    0.0800
30     H30    -2.7602    4.1444    2.1214 H        1 ZINC000000899870    0.1300
31     H31    -4.9887    5.1883    2.0594 H        1 ZINC000000899870    0.1300
32     H32    -7.3621    4.5152    0.3578 H        1 ZINC000000899870    0.3800
33     H33    -6.9687    1.5662   -0.6734 H        1 ZINC000000899870    0.3800
34     H34    -4.3719    0.5720    0.4394 H        1 ZINC000000899870    0.1300
35     H35    -0.6706    5.9008   -0.6644 H        1 ZINC000000899870    0.1400
36     H36    -0.9073    5.1343   -3.6251 H        1 ZINC000000899870    0.1400
37     H37    -0.3675    7.6335   -0.8527 H        1 ZINC000000899870    0.1400
38     H38     0.0367   10.0350   -1.1755 H        1 ZINC000000899870    0.1400
39     H39     1.0896   11.4900   -3.5700 H        1 ZINC000000899870    0.3900
40     H40     0.6683    9.6336   -6.0723 H        1 ZINC000000899870    0.3900
41     H41    -0.6211    7.1134   -5.1091 H        1 ZINC000000899870    0.1400
@<TRIPOS>BOND
1     1     2     ar
2     2     3     ar
3     2     4     1
4     4     5     1
5     4     6     1
6     4     15    1
7     6     7     1
8     6     28    1
9     6     29    1
10    7     14    ar
11    7     8     ar
12    8     9     ar
13    8     30    1
14    9     10    ar
15    9     31    1
16    10    11    1
17    10    12    ar
18    11    32    1
19    12    13    1
20    12    14    ar
21    13    33    1
22    14    34    1
23    15    16    1
24    16    17    2
25    16    18    1
26    18    19    2
27    18    35    1
28    19    20    1
29    19    36    1
30    20    27    ar
31    20    21    ar
32    21    22    ar
33    21    37    1
34    22    23    ar
35    22    38    1
36    23    24    1
37    23    25    ar
38    24    39    1
39    25    26    1
40    25    27    ar
41    26    40    1
42    27    41    1
@<TRIPOS>SUBSTRUCTURE
1   ZINC000000899870 1     RESIDUE    1   A     ZIN   1


@<TRIPOS>MOLECULE
C1=CC(=C(C=C1CC(C(=O)O)OC(=O)C=CC2=C3C=C(OC3=C(C=C2)O)C4=CC(=C(C=C4)O)O)O)O
55    58    1     0     0
SMALL
USER_CHARGES
@<TRIPOS>ATOM
1      O1      0.0021   -0.0041    0.0020 O.co2    1 ZINC000014690026   -0.6900
2      C2     -0.0145    1.2150    0.0087 C.2      1 ZINC000014690026    0.4900
3      O3      1.0330    1.8389    0.0021 O.co2    1 ZINC000014690026   -0.6800
4      C4     -1.3296    1.9507    0.0190 C.3      1 ZINC000014690026    0.0300
5      H5     -1.9385    1.6182   -0.8218 H        1 ZINC000014690026    0.0800
6      C6     -2.0662    1.6605    1.3283 C.3      1 ZINC000014690026   -0.0700
7      C7     -3.4323    2.2954    1.2875 C.ar     1 ZINC000014690026   -0.0600
8      C8     -3.6048    3.5900    1.7397 C.ar     1 ZINC000014690026   -0.1000
9      C9     -4.8564    4.1768    1.7048 C.ar     1 ZINC000014690026   -0.1300
10     C10    -5.9407    3.4671    1.2154 C.ar     1 ZINC000014690026    0.0600
11     O11    -7.1722    4.0429    1.1800 O.3      1 ZINC000014690026   -0.4900
12     C12    -5.7669    2.1635    0.7596 C.ar     1 ZINC000014690026    0.0800
13     O13    -6.8283    1.4628    0.2778 O.3      1 ZINC000014690026   -0.4900
14     C14    -4.5094    1.5833    0.7925 C.ar     1 ZINC000014690026   -0.1300
15     O15    -1.0907    3.3552   -0.0920 O.3      1 ZINC000014690026   -0.3200
16     C16    -1.0450    3.8725   -1.3379 C.2      1 ZINC000014690026    0.5000
17     O17    -1.2041    3.1490   -2.3033 O.2      1 ZINC000014690026   -0.5200
18     C18    -0.8124    5.2553   -1.5212 C.2      1 ZINC000014690026   -0.1600
19     C19    -0.7666    5.7747   -2.7722 C.2      1 ZINC000014690026   -0.0200
20     C20    -0.5258    7.2057   -2.9620 C.ar     1 ZINC000014690026   -0.0300
21     C21    -0.4825    7.7560   -4.2649 C.ar     1 ZINC000014690026   -0.0900
22     C22    -0.6286    7.2114   -5.5627 C.2      1 ZINC000014690026   -0.1800
23     C23    -0.4860    8.2369   -6.4402 C.2      1 ZINC000014690026    0.0700
24     C24    -0.5652    8.1189   -7.9103 C.ar     1 ZINC000014690026   -0.0200
25     C25    -0.8097    6.8775   -8.5004 C.ar     1 ZINC000014690026   -0.0800
26     C26    -0.8837    6.7693   -9.8737 C.ar     1 ZINC000014690026   -0.1300
27     C27    -0.7158    7.8915  -10.6710 C.ar     1 ZINC000014690026    0.0900
28     O28    -0.7896    7.7796  -12.0237 O.3      1 ZINC000014690026   -0.4900
29     C29    -0.4719    9.1338  -10.0885 C.ar     1 ZINC000014690026    0.0800
30     O30    -0.3085   10.2324  -10.8732 O.3      1 ZINC000014690026   -0.4800
31     C31    -0.4012    9.2502   -8.7132 C.ar     1 ZINC000014690026   -0.1100
32     O32    -0.2610    9.3797   -5.7619 O.3      1 ZINC000014690026   -0.1700
33     C33    -0.2515    9.1290   -4.4346 C.ar     1 ZINC000014690026    0.0300
34     C34    -0.0674    9.9380   -3.3151 C.ar     1 ZINC000014690026    0.1300
35     O35     0.1567   11.2679   -3.4719 O.3      1 ZINC000014690026   -0.4900
36     C36    -0.1125    9.3902   -2.0397 C.ar     1 ZINC000014690026   -0.1200
37     C37    -0.3421    8.0431   -1.8572 C.ar     1 ZINC000014690026   -0.1000
38     H38    -2.1699    0.5830    1.4557 H        1 ZINC000014690026    0.1000
39     H39    -1.4990    2.0722    2.1631 H        1 ZINC000014690026    0.0800
40     H40    -2.7602    4.1444    2.1214 H        1 ZINC000014690026    0.1300
41     H41    -4.9887    5.1883    2.0594 H        1 ZINC000014690026    0.1300
42     H42    -7.3621    4.5152    0.3578 H        1 ZINC000014690026    0.3800
43     H43    -6.9687    1.5662   -0.6734 H        1 ZINC000014690026    0.3800
44     H44    -4.3719    0.5720    0.4394 H        1 ZINC000014690026    0.1300
45     H45    -0.6712    5.8974   -0.6644 H        1 ZINC000014690026    0.1400
46     H46    -0.9078    5.1326   -3.6291 H        1 ZINC000014690026    0.1400
47     H47    -0.8177    6.1768   -5.8083 H        1 ZINC000014690026    0.1700
48     H48    -0.9405    6.0020   -7.8819 H        1 ZINC000014690026    0.1400
49     H49    -1.0726    5.8083  -10.3289 H        1 ZINC000014690026    0.1400
50     H50    -1.6801    7.9019  -12.3804 H        1 ZINC000014690026    0.3900
51     H51    -1.1304   10.7044  -11.0652 H        1 ZINC000014690026    0.3900
52     H52    -0.2126   10.2125   -8.2605 H        1 ZINC000014690026    0.1400
53     H53    -0.6482   11.8037   -3.4831 H        1 ZINC000014690026    0.3900
54     H54     0.0317   10.0278   -1.1801 H        1 ZINC000014690026    0.1500
55     H55    -0.3743    7.6325   -0.8588 H        1 ZINC000014690026    0.1500
@<TRIPOS>BOND
1     1     2     ar
2     2     3     ar
3     2     4     1
4     4     5     1
5     4     6     1
6     4     15    1
7     6     7     1
8     6     38    1
9     6     39    1
10    7     14    ar
11    7     8     ar
12    8     9     ar
13    8     40    1
14    9     10    ar
15    9     41    1
16    10    11    1
17    10    12    ar
18    11    42    1
19    12    13    1
20    12    14    ar
21    13    43    1
22    14    44    1
23    15    16    1
24    16    17    2
25    16    18    1
26    18    19    2
27    18    45    1
28    19    20    1
29    19    46    1
30    20    37    ar
31    20    21    ar
32    21    33    ar
33    21    22    1
34    22    23    2
35    22    47    1
36    23    24    1
37    23    32    1
38    24    31    ar
39    24    25    ar
40    25    26    ar
41    25    48    1
42    26    27    ar
43    26    49    1
44    27    28    1
45    27    29    ar
46    28    50    1
47    29    30    1
48    29    31    ar
49    30    51    1
50    31    52    1
51    32    33    1
52    33    34    ar
53    34    35    1
54    34    36    ar
55    35    53    1
56    36    37    ar
57    36    54    1
58    37    55    1
@<TRIPOS>SUBSTRUCTURE
1   ZINC000014690026 1     RESIDUE    1   A     ZIN   1


@<TRIPOS>MOLECULE
C1=CC(=C(C=C1C=CC(=O)O)O)O
  20   20    0    0    0
SMALL
USER_CHARGES
NO_NAME
@<TRIPOS>ATOM
    1 O1        0.0021    -0.0041     0.0020 O.co2  1 <0>      -0.6900
    2 C2       -0.0145     1.2211     0.0088 C.2    1 <0>       0.5000
    3 O3        1.0381     1.8481     0.0021 O.co2  1 <0>      -0.7000
    4 C4       -1.2481     1.9111     0.0184 C.2    1 <0>      -0.1500
    5 C5       -2.4109     1.2186     0.0201 C.2    1 <0>      -0.1200
    6 C6       -3.6925     1.9355     0.0301 C.ar   1 <0>      -0.0200
    7 C7       -3.7140     3.3353     0.0319 C.ar   1 <0>      -0.1100
    8 C8       -4.9176     4.0050     0.0408 C.ar   1 <0>      -0.1300
    9 C9       -6.1112     3.2955     0.0484 C.ar   1 <0>       0.0600
   10 O10      -7.2946     3.9615     0.0572 O.3    1 <0>      -0.4900
   11 C11      -6.0984     1.9004     0.0466 C.ar   1 <0>       0.0800
   12 O12      -7.2700     1.2099     0.0536 O.3    1 <0>      -0.4900
   13 C13      -4.8973     1.2208     0.0319 C.ar   1 <0>      -0.1300
   14 H14      -1.2628     2.9910     0.0243 H      1 <0>       0.1000
   15 H15      -2.3962     0.1387     0.0142 H      1 <0>       0.1300
   16 H16      -2.7872     3.8898     0.0268 H      1 <0>       0.1400
   17 H17      -4.9330     5.0849     0.0422 H      1 <0>       0.1300
   18 H18      -7.6434     4.1552    -0.8237 H      1 <0>       0.3800
   19 H19      -7.6147     1.0112    -0.8277 H      1 <0>       0.3800
   20 H20      -4.8861     0.1408     0.0305 H      1 <0>       0.1400
@<TRIPOS>BOND
   1    1    2 ar
   2    2    3 ar
   3    2    4 1
   4    4    5 2
   5    4   14 1
   6    5    6 1
   7    5   15 1
   8    6   13 ar
   9    6    7 ar
  10    7    8 ar
  11    7   16 1
  12    8    9 ar
  13    8   17 1
  14    9   10 1
  15    9   11 ar
  16   10   18 1
  17   11   12 1
  18   11   13 ar
  19   12   19 1
  20   13   20 1


@<TRIPOS>MOLECULE
CCOC1=CN=C2C(=C1C3=CC=CC=C3)C4=C(O2)C=CC(=C4)O
  38   41    0    0    0
SMALL
USER_CHARGES
NO_NAME
@<TRIPOS>ATOM
    1 C1       -0.0187     1.5258     0.0104 C.3    1 <0>      -0.1500
    2 C2        0.0021    -0.0041     0.0020 C.3    1 <0>       0.0500
    3 O3        0.6932    -0.4774     1.1597 O.3    1 <0>      -0.3000
    4 C4        0.8020    -1.8246     1.3057 C.ar   1 <0>       0.0800
    5 C5        1.4597    -2.3697     2.4161 C.ar   1 <0>       0.0200
    6 C6        2.0519    -1.4985     3.4579 C.ar   1 <0>      -0.0500
    7 C7        3.4328    -1.4778     3.6511 C.ar   1 <0>      -0.1000
    8 C8        3.9786    -0.6639     4.6226 C.ar   1 <0>      -0.1200
    9 C9        3.1588     0.1304     5.4041 C.ar   1 <0>      -0.1100
   10 C10       1.7881     0.1138     5.2175 C.ar   1 <0>      -0.1200
   11 C11       1.2312    -0.6916     4.2452 C.ar   1 <0>      -0.0900
   12 C12       1.5389    -3.7667     2.5099 C.ar   1 <0>      -0.1200
   13 C13       0.9683    -4.5632     1.5083 C.ar   1 <0>       0.2600
   14 N14       0.3581    -3.9900     0.4793 N.ar   1 <0>      -0.4400
   15 C15       0.2590    -2.6819     0.3610 C.ar   1 <0>       0.0700
   16 O16       1.1768    -5.8601     1.8266 O.3    1 <0>      -0.1800
   17 C17       1.8571    -5.9842     2.9884 C.ar   1 <0>       0.0900
   18 C18       2.1249    -4.7007     3.4857 C.ar   1 <0>      -0.1000
   19 C19       2.8201    -4.5425     4.6808 C.ar   1 <0>      -0.0800
   20 C20       3.2472    -5.6582     5.3782 C.ar   1 <0>       0.0900
   21 O21       3.9270    -5.5103     6.5465 O.3    1 <0>      -0.4900
   22 C22       2.9813    -6.9306     4.8852 C.ar   1 <0>      -0.1000
   23 C23       2.2937    -7.0940     3.7015 C.ar   1 <0>      -0.0900
   24 H24       1.0039     1.9031     0.0027 H      1 <0>       0.0700
   25 H25      -0.5459     1.8868    -0.8726 H      1 <0>       0.0800
   26 H26      -0.5289     1.8773     0.9072 H      1 <0>       0.0700
   27 H27      -1.0205    -0.3814     0.0098 H      1 <0>       0.0700
   28 H28       0.5123    -0.3556    -0.8948 H      1 <0>       0.0700
   29 H29       4.0738    -2.0977     3.0418 H      1 <0>       0.1200
   30 H30       5.0479    -0.6473     4.7734 H      1 <0>       0.1300
   31 H31       3.5905     0.7658     6.1633 H      1 <0>       0.1200
   32 H32       1.1531     0.7358     5.8308 H      1 <0>       0.1300
   33 H33       0.1610    -0.7035     4.1001 H      1 <0>       0.1200
   34 H34      -0.2489    -2.2672    -0.4971 H      1 <0>       0.1800
   35 H35       3.0256    -3.5531     5.0619 H      1 <0>       0.1400
   36 H36       3.3609    -5.4811     7.3300 H      1 <0>       0.3900
   37 H37       3.3170    -7.7983     5.4336 H      1 <0>       0.1500
   38 H38       2.0925    -8.0872     3.3282 H      1 <0>       0.1500
@<TRIPOS>BOND
   1    1    2 1
   2    1   24 1
   3    1   25 1
   4    1   26 1
   5    2    3 1
   6    2   27 1
   7    2   28 1
   8    3    4 1
   9    4   15 ar
  10    4    5 ar
  11    5    6 1
  12    5   12 ar
  13    6   11 ar
  14    6    7 ar
  15    7    8 ar
  16    7   29 1
  17    8    9 ar
  18    8   30 1
  19    9   10 ar
  20    9   31 1
  21   10   11 ar
  22   10   32 1
  23   11   33 1
  24   12   18 1
  25   12   13 ar
  26   13   14 ar
  27   13   16 1
  28   14   15 ar
  29   15   34 1
  30   16   17 1
  31   17   23 ar
  32   17   18 ar
  33   18   19 ar
  34   19   20 ar
  35   19   35 1
  36   20   21 1
  37   20   22 ar
  38   21   36 1
  39   22   23 ar
  40   22   37 1
  41   23   38 1


@<TRIPOS>MOLECULE
C1=CC=C(C=C1)COC2=CN=C3C(=C2C4=CC=CC=C4)C5=C(O3)C=CC(=C5)O
  45   49    0    0    0
SMALL
USER_CHARGES
NO_NAME
@<TRIPOS>ATOM
    1 O1       -0.0164     1.3556     0.0095 O.3    1 <0>      -0.4900
    2 C2        0.0021    -0.0041     0.0020 C.ar   1 <0>       0.0900
    3 C3        0.0057    -0.6888    -1.1999 C.ar   1 <0>      -0.0800
    4 C4        0.0246    -2.0804    -1.2007 C.ar   1 <0>      -0.1000
    5 C5        0.0399    -2.7876     0.0102 C.ar   1 <0>       0.0900
    6 C6        0.0356    -2.0839     1.2083 C.ar   1 <0>      -0.0900
    7 C7        0.0230    -0.7053     1.2023 C.ar   1 <0>      -0.1000
    8 O8        0.0566    -4.1108    -0.2668 O.3    1 <0>      -0.1800
    9 C9        0.0534    -4.3404    -1.5987 C.ar   1 <0>       0.2700
   10 C10       0.0335    -3.1045    -2.2585 C.ar   1 <0>      -0.1200
   11 C11       0.0260    -3.0654    -3.6604 C.ar   1 <0>       0.0200
   12 C12       0.0056    -1.7758    -4.3894 C.ar   1 <0>      -0.0500
   13 C13      -1.0956    -0.9273    -4.2801 C.ar   1 <0>      -0.1000
   14 C14      -1.1088     0.2726    -4.9615 C.ar   1 <0>      -0.1200
   15 C15      -0.0325     0.6343    -5.7518 C.ar   1 <0>      -0.1100
   16 C16       1.0625    -0.2035    -5.8645 C.ar   1 <0>      -0.1200
   17 C17       1.0900    -1.4031    -5.1830 C.ar   1 <0>      -0.0900
   18 C18       0.0389    -4.2853    -4.3491 C.ar   1 <0>       0.0700
   19 O19       0.0330    -4.3114    -5.7083 O.3    1 <0>      -0.2900
   20 C20       0.0470    -5.5968    -6.3325 C.3    1 <0>       0.0900
   21 C21       0.0378    -5.4281    -7.8300 C.ar   1 <0>      -0.1000
   22 C22      -1.1635    -5.3609    -8.5106 C.ar   1 <0>      -0.0900
   23 C23      -1.1719    -5.2062    -9.8842 C.ar   1 <0>      -0.1200
   24 C24       0.0209    -5.1182   -10.5772 C.ar   1 <0>      -0.1100
   25 C25       1.2223    -5.1845    -9.8965 C.ar   1 <0>      -0.1200
   26 C26       1.2306    -5.3350    -8.5224 C.ar   1 <0>      -0.0900
   27 C27       0.0584    -5.4655    -3.6217 C.ar   1 <0>       0.0700
   28 N28       0.0649    -5.4634    -2.3046 N.ar   1 <0>      -0.4400
   29 H29       0.8616     1.7609     0.0033 H      1 <0>       0.3900
   30 H30      -0.0064    -0.1460    -2.1335 H      1 <0>       0.1400
   31 H31       0.0469    -2.6183     2.1467 H      1 <0>       0.1500
   32 H32       0.0197    -0.1657     2.1378 H      1 <0>       0.1500
   33 H33      -1.9365    -1.2088    -3.6637 H      1 <0>       0.1200
   34 H34      -1.9612     0.9304    -4.8779 H      1 <0>       0.1300
   35 H35      -0.0474     1.5744    -6.2833 H      1 <0>       0.1200
   36 H36       1.8997     0.0841    -6.4833 H      1 <0>       0.1300
   37 H37       1.9454    -2.0563    -5.2717 H      1 <0>       0.1200
   38 H38       0.9456    -6.1363    -6.0331 H      1 <0>       0.0800
   39 H39      -0.8342    -6.1598    -6.0249 H      1 <0>       0.0800
   40 H40      -2.0954    -5.4296    -7.9692 H      1 <0>       0.1200
   41 H41      -2.1105    -5.1543   -10.4161 H      1 <0>       0.1300
   42 H42       0.0144    -4.9980   -11.6505 H      1 <0>       0.1300
   43 H43       2.1542    -5.1162   -10.4380 H      1 <0>       0.1300
   44 H44       2.1692    -5.3868    -7.9906 H      1 <0>       0.1200
   45 H45       0.0680    -6.4088    -4.1475 H      1 <0>       0.1800
@<TRIPOS>BOND
   1    1    2 1
   2    1   29 1
   3    2    7 ar
   4    2    3 ar
   5    3    4 ar
   6    3   30 1
   7    4   10 1
   8    4    5 ar
   9    5    6 ar
  10    5    8 1
  11    6    7 ar
  12    6   31 1
  13    7   32 1
  14    8    9 1
  15    9   28 ar
  16    9   10 ar
  17   10   11 ar
  18   11   12 1
  19   11   18 ar
  20   12   17 ar
  21   12   13 ar
  22   13   14 ar
  23   13   33 1
  24   14   15 ar
  25   14   34 1
  26   15   16 ar
  27   15   35 1
  28   16   17 ar
  29   16   36 1
  30   17   37 1
  31   18   19 1
  32   18   27 ar
  33   19   20 1
  34   20   21 1
  35   20   38 1
  36   20   39 1
  37   21   26 ar
  38   21   22 ar
  39   22   23 ar
  40   22   40 1
  41   23   24 ar
  42   23   41 1
  43   24   25 ar
  44   24   42 1
  45   25   26 ar
  46   25   43 1
  47   26   44 1
  48   27   28 ar
  49   27   45 1


@<TRIPOS>MOLECULE
COC1=CN=C2C(=C1C3=CC=CC=C3)C4=C(O2)C=CC(=C4)O
  35   38    0    0    0
SMALL
NO_CHARGES
@<TRIPOS>ATOM
   1 C1            -0.0173     1.4248     0.0099 C.3     
   2 O2             0.0021    -0.0041     0.0020 O.3     
   3 C3             0.6260    -0.6185     1.0418 C.ar    
   4 C4             0.6940    -2.0164     1.1058 C.ar    
   5 C5             0.0917    -2.8606     0.0477 C.ar    
   6 C6            -0.9854    -3.6945     0.3461 C.ar    
   7 C7            -1.5425    -4.4782    -0.6437 C.ar    
   8 C8            -1.0345    -4.4377    -1.9298 C.ar    
   9 C9             0.0342    -3.6128    -2.2317 C.ar    
  10 C10            0.5960    -2.8202    -1.2517 C.ar    
  11 C11            1.3511    -2.5906     2.2036 C.ar    
  12 C12            1.9108    -1.7648     3.1875 C.ar    
  13 N13            1.8146    -0.4467     3.0733 N.ar    
  14 C14            1.2105     0.1279     2.0535 C.ar    
  15 O15            2.4802    -2.5507     4.1282 O.3     
  16 C16            2.3363    -3.8625     3.8344 C.ar    
  17 C17            1.6303    -3.9727     2.6278 C.ar    
  18 C18            1.3440    -5.2259     2.0946 C.ar    
  19 C19            1.7592    -6.3651     2.7603 C.ar    
  20 O20            1.4826    -7.5925     2.2444 O.3     
  21 C21            2.4595    -6.2557     3.9562 C.ar    
  22 C22            2.7455    -5.0172     4.4900 C.ar    
  23 H23            1.0053     1.8021     0.0021 H       
  24 H24           -0.5445     1.7859    -0.8732 H       
  25 H25           -0.5275     1.7763     0.9067 H       
  26 H26           -1.3826    -3.7272     1.3499 H       
  27 H27           -2.3765    -5.1246    -0.4138 H       
  28 H28           -1.4738    -5.0529    -2.7012 H       
  29 H29            0.4268    -3.5857    -3.2375 H       
  30 H30            1.4301    -2.1764    -1.4887 H       
  31 H31            1.1608     1.2058     2.0094 H       
  32 H32            0.7998    -5.3085     1.1653 H       
  33 H33            2.1643    -7.9312     1.6481 H       
  34 H34            2.7814    -7.1484     4.4719 H       
  35 H35            3.2904    -4.9442     5.4196 H       
@<TRIPOS>BOND
   1    1    2 1
   2    1   23 1
   3    1   24 1
   4    1   25 1
   5    2    3 1
   6    3   14 ar
   7    3    4 ar
   8    4    5 1
   9    4   11 ar
  10    5   10 ar
  11    5    6 ar
  12    6    7 ar
  13    6   26 1
  14    7    8 ar
  15    7   27 1
  16    8    9 ar
  17    8   28 1
  18    9   10 ar
  19    9   29 1
  20   10   30 1
  21   11   17 1
  22   11   12 ar
  23   12   13 ar
  24   12   15 1
  25   13   14 ar
  26   14   31 1
  27   15   16 1
  28   16   22 ar
  29   16   17 ar
  30   17   18 ar
  31   18   19 ar
  32   18   32 1
  33   19   20 1
  34   19   21 ar
  35   20   33 1
  36   21   22 ar
  37   21   34 1
  38   22   35 1


@<TRIPOS>MOLECULE
CC1CC2=CC3=C(C(=C2C4=C(C(=C(C=C4CC1C)OC)OC)OC)OC)OCO3
57    60    1     0     0
SMALL
USER_CHARGES
@<TRIPOS>ATOM
1      C1     -0.1968    1.4401   -0.2057 C.3      1 ZINC000001531882    0.0200
2      O2     -0.1101    0.0151   -0.1418 O.3      1 ZINC000001531882   -0.3000
3      C3      0.5592   -0.6084   -1.1482 C.ar     1 ZINC000001531882    0.1300
4      C4      1.1259    0.1381   -2.1733 C.ar     1 ZINC000001531882   -0.2000
5      C5      1.7947   -0.4954   -3.1947 C.ar     1 ZINC000001531882   -0.0100
6      C6      1.8993   -1.8849   -3.2286 C.ar     1 ZINC000001531882   -0.0900
7      C7      1.3449   -2.6356   -2.1844 C.ar     1 ZINC000001531882    0.1500
8      O8      1.4616   -3.9903   -2.1826 O.3      1 ZINC000001531882   -0.3100
9      C9      0.3803   -4.7354   -2.7462 C.3      1 ZINC000001531882    0.0400
10     C10     0.6818   -1.9938   -1.1490 C.ar     1 ZINC000001531882    0.0300
11     O11     0.1399   -2.7231   -0.1357 O.3      1 ZINC000001531882   -0.3200
12     C12     0.9727   -2.9786    0.9970 C.3      1 ZINC000001531882    0.0400
13     C13     2.5457   -2.5679   -4.3658 C.ar     1 ZINC000001531882   -0.0400
14     C14     2.0736   -2.3970   -5.6658 C.ar     1 ZINC000001531882   -0.0400
15     C15     2.7047   -2.9961   -6.7310 C.ar     1 ZINC000001531882   -0.1100
16     C16     3.8079   -3.8116   -6.5144 C.ar     1 ZINC000001531882    0.0500
17     O17     4.5936   -4.5152   -7.3809 O.3      1 ZINC000001531882   -0.3000
18     C18     5.7887   -4.8357   -6.6450 C.3      1 ZINC000001531882    0.2100
19     O19     5.3505   -4.8601   -5.2738 O.3      1 ZINC000001531882   -0.3000
20     C20     4.2753   -4.0180   -5.2195 C.ar     1 ZINC000001531882    0.0000
21     C21     3.6532   -3.3963   -4.1467 C.ar     1 ZINC000001531882    0.1400
22     O22     4.1186   -3.5908   -2.8840 O.3      1 ZINC000001531882   -0.3100
23     C23     5.1155   -2.6818   -2.4128 C.3      1 ZINC000001531882    0.0400
24     C24     0.8189   -1.5743   -5.8738 C.3      1 ZINC000001531882   -0.0800
25     C25     1.1974   -0.1966   -6.4166 C.3      1 ZINC000001531882   -0.0800
26     H26     2.1246   -0.2767   -6.9841 H        1 ZINC000001531882    0.0700
27     C27     0.0842    0.3049   -7.3387 C.3      1 ZINC000001531882   -0.1500
28     C28     1.3906    0.7987   -5.2763 C.3      1 ZINC000001531882   -0.0800
29     H29     1.7000    1.7597   -5.6874 H        1 ZINC000001531882    0.0800
30     C30     0.0663    0.9732   -4.5302 C.3      1 ZINC000001531882   -0.1600
31     C31     2.4562    0.3027   -4.2993 C.3      1 ZINC000001531882   -0.0800
32     H32     0.8066    1.8658   -0.1979 H        1 ZINC000001531882    0.0600
33     H33    -0.7084    1.7322   -1.1227 H        1 ZINC000001531882    0.0600
34     H34    -0.7547    1.8090    0.6550 H        1 ZINC000001531882    0.1000
35     H35     1.0411    1.2147   -2.1686 H        1 ZINC000001531882    0.1400
36     H36     0.3000   -4.5112   -3.8099 H        1 ZINC000001531882    0.0400
37     H37     0.5648   -5.8013   -2.6124 H        1 ZINC000001531882    0.0900
38     H38    -0.5489   -4.4620   -2.2462 H        1 ZINC000001531882    0.0500
39     H39     1.3378   -2.0340    1.4001 H        1 ZINC000001531882    0.0400
40     H40     0.3968   -3.5012    1.7609 H        1 ZINC000001531882    0.0900
41     H41     1.8187   -3.5957    0.6943 H        1 ZINC000001531882    0.0500
42     H42     2.3424   -2.8328   -7.7352 H        1 ZINC000001531882    0.1400
43     H43     6.1711   -5.8122   -6.9422 H        1 ZINC000001531882    0.1300
44     H44     6.5464   -4.0660   -6.7913 H        1 ZINC000001531882    0.0800
45     H45     4.7170   -1.6673   -2.4250 H        1 ZINC000001531882    0.0500
46     H46     5.3984   -2.9488   -1.3945 H        1 ZINC000001531882    0.1000
47     H47     5.9913   -2.7360   -3.0593 H        1 ZINC000001531882    0.0400
48     H48     0.1673   -2.0793   -6.5868 H        1 ZINC000001531882    0.0800
49     H49     0.2978   -1.4597   -4.9232 H        1 ZINC000001531882    0.0900
50     H50    -0.8477    0.3764   -6.7777 H        1 ZINC000001531882    0.0600
51     H51     0.3501    1.2875   -7.7282 H        1 ZINC000001531882    0.0600
52     H52    -0.0430   -0.3921   -8.1671 H        1 ZINC000001531882    0.0600
53     H53    -0.2526    0.0122   -4.1265 H        1 ZINC000001531882    0.0600
54     H54     0.1997    1.6837   -3.7144 H        1 ZINC000001531882    0.0600
55     H55    -0.6917    1.3479   -5.2181 H        1 ZINC000001531882    0.0600
56     H56     2.9791    1.1562   -3.8678 H        1 ZINC000001531882    0.0800
57     H57     3.1683   -0.3303   -4.8287 H        1 ZINC000001531882    0.0800
@<TRIPOS>BOND
1     1     2     1
2     1     32    1
3     1     33    1
4     1     34    1
5     2     3     1
6     3     10    ar
7     3     4     ar
8     4     5     ar
9     4     35    1
10    5     31    1
11    5     6     ar
12    6     7     ar
13    6     13    1
14    7     8     1
15    7     10    ar
16    8     9     1
17    9     36    1
18    9     37    1
19    9     38    1
20    10    11    1
21    11    12    1
22    12    39    1
23    12    40    1
24    12    41    1
25    13    21    ar
26    13    14    ar
27    14    15    ar
28    14    24    1
29    15    16    ar
30    15    42    1
31    16    20    ar
32    16    17    1
33    17    18    1
34    18    19    1
35    18    43    1
36    18    44    1
37    19    20    1
38    20    21    ar
39    21    22    1
40    22    23    1
41    23    45    1
42    23    46    1
43    23    47    1
44    24    25    1
45    24    48    1
46    24    49    1
47    25    26    1
48    25    27    1
49    25    28    1
50    27    50    1
51    27    51    1
52    27    52    1
53    28    29    1
54    28    30    1
55    28    31    1
56    30    53    1
57    30    54    1
58    30    55    1
59    31    56    1
60    31    57    1
@<TRIPOS>SUBSTRUCTURE
1   ZINC000001531882 1     RESIDUE    1   A     ZIN   1


@<TRIPOS>MOLECULE
C1=CC(=CC(=C1)N)C2=CC3=C(N2)N=CN=C3OC4=CC=CC(=C4)O
  38   41    0    0    0
SMALL
USER_CHARGES
NO_NAME
@<TRIPOS>ATOM
    1 N1       -0.0375     1.3821    -0.0172 N.pl3  1 <0>      -0.8800
    2 C2       -0.0146    -0.0145    -0.0004 C.ar   1 <0>       0.2200
    3 C3       -1.2061    -0.7287     0.0474 C.ar   1 <0>      -0.1900
    4 C4       -1.1886    -2.1109     0.0641 C.ar   1 <0>      -0.0600
    5 C5        0.0118    -2.7908     0.0335 C.ar   1 <0>      -0.1500
    6 C6        1.2142    -2.0827    -0.0146 C.ar   1 <0>       0.0200
    7 C7        2.5019    -2.8090    -0.0471 C.2    1 <0>       0.1200
    8 C8        2.6404    -4.1587    -0.0397 C.2    1 <0>      -0.1300
    9 C9        4.0721    -4.4347    -0.0812 C.ar   1 <0>      -0.2200
   10 C10       4.8571    -5.5972    -0.0949 C.ar   1 <0>       0.4200
   11 O11       4.2822    -6.8231    -0.0671 O.3    1 <0>      -0.2300
   12 C12       5.0902    -7.9095    -0.1837 C.ar   1 <0>       0.1000
   13 C13       5.1648    -8.5934    -1.3888 C.ar   1 <0>      -0.1200
   14 C14       5.9868    -9.6979    -1.5080 C.ar   1 <0>      -0.0900
   15 C15       6.7357   -10.1243    -0.4282 C.ar   1 <0>      -0.1400
   16 C16       6.6645    -9.4437     0.7794 C.ar   1 <0>       0.1200
   17 O17       7.4015    -9.8638     1.8411 O.3    1 <0>      -0.5000
   18 C18       5.8453    -8.3322     0.9000 C.ar   1 <0>      -0.1300
   19 N19       6.1780    -5.4658    -0.1361 N.ar   1 <0>      -0.5800
   20 C20       6.7438    -4.2726    -0.1637 C.ar   1 <0>       0.3600
   21 N21       6.0490    -3.1553    -0.1520 N.ar   1 <0>      -0.5500
   22 C22       4.7187    -3.1825    -0.1118 C.ar   1 <0>       0.3500
   23 N23       3.7469    -2.2196    -0.0955 N.pl3  1 <0>      -0.5600
   24 C24       1.1966    -0.6887    -0.0373 C.ar   1 <0>      -0.1900
   25 H25       0.7939     1.8804    -0.0546 H      1 <0>       0.4000
   26 H26      -0.8849     1.8536     0.0046 H      1 <0>       0.4000
   27 H27      -2.1487    -0.2020     0.0719 H      1 <0>       0.1200
   28 H28      -2.1176    -2.6605     0.1017 H      1 <0>       0.1300
   29 H29       0.0212    -3.8706     0.0470 H      1 <0>       0.1300
   30 H30       1.8443    -4.8878    -0.0085 H      1 <0>       0.1600
   31 H31       4.5798    -8.2624    -2.2342 H      1 <0>       0.1300
   32 H32       6.0435   -10.2288    -2.4468 H      1 <0>       0.1400
   33 H33       7.3767   -10.9882    -0.5237 H      1 <0>       0.1400
   34 H34       8.2800    -9.4631     1.8933 H      1 <0>       0.3900
   35 H35       5.7886    -7.8013     1.8387 H      1 <0>       0.1300
   36 H36       7.8216    -4.2115    -0.1970 H      1 <0>       0.2100
   37 H37       3.9100    -1.2636    -0.1135 H      1 <0>       0.4200
   38 H38       2.1236    -0.1357    -0.0745 H      1 <0>       0.1200
@<TRIPOS>BOND
   1    1    2 1
   2    1   25 1
   3    1   26 1
   4    2   24 ar
   5    2    3 ar
   6    3    4 ar
   7    3   27 1
   8    4    5 ar
   9    4   28 1
  10    5    6 ar
  11    5   29 1
  12    6    7 1
  13    6   24 ar
  14    7   23 1
  15    7    8 2
  16    8    9 1
  17    8   30 1
  18    9   22 ar
  19    9   10 ar
  20   10   11 1
  21   10   19 ar
  22   11   12 1
  23   12   18 ar
  24   12   13 ar
  25   13   14 ar
  26   13   31 1
  27   14   15 ar
  28   14   32 1
  29   15   16 ar
  30   15   33 1
  31   16   17 1
  32   16   18 ar
  33   17   34 1
  34   18   35 1
  35   19   20 ar
  36   20   21 ar
  37   20   36 1
  38   21   22 ar
  39   22   23 1
  40   23   37 1
  41   24   38 1


@<TRIPOS>MOLECULE
CCCCC(CCC1=CC=C(C=C1)[N+](=O)[O-])(C(=O)C)C(=O)OCC
  49   49    0    0    0
SMALL
USER_CHARGES
NO_NAME
@<TRIPOS>ATOM
    1 C1       -0.0187     1.5258     0.0104 C.3    1 <0>      -0.1500
    2 C2        0.0021    -0.0041     0.0020 C.3    1 <0>      -0.1200
    3 C3        0.7182    -0.4975    -1.2568 C.3    1 <0>      -0.1300
    4 C4        0.7390    -2.0273    -1.2652 C.3    1 <0>      -0.1100
    5 C5        1.4551    -2.5207    -2.5240 C.3    1 <0>      -0.1000
    6 C6        0.7151    -2.0139    -3.7635 C.3    1 <0>      -0.1000
    7 C7       -0.7203    -2.5435    -3.7527 C.3    1 <0>      -0.1000
    8 C8       -1.4491    -2.0443    -4.9736 C.ar   1 <0>      -0.0300
    9 C9       -2.1318    -0.8431    -4.9280 C.ar   1 <0>      -0.1100
   10 C10      -2.8004    -0.3852    -6.0479 C.ar   1 <0>      -0.0500
   11 C11      -2.7859    -1.1282    -7.2135 C.ar   1 <0>      -0.0500
   12 N12      -3.5022    -0.6381    -8.4125 N.pl3  1 <0>       0.0300
   13 O13      -4.1044     0.4199    -8.3722 O.2    1 <0>      -0.1600
   14 O14      -3.4895    -1.2928    -9.4395 O.2    1 <0>      -0.1600
   15 C15      -2.1021    -2.3287    -7.2595 C.ar   1 <0>      -0.0500
   16 C16      -1.4304    -2.7848    -6.1407 C.ar   1 <0>      -0.1100
   17 C17       1.4755    -4.0276    -2.5323 C.2    1 <0>       0.3700
   18 C18       2.1274    -4.7660    -3.6728 C.3    1 <0>      -0.2100
   19 O19       0.9695    -4.6433    -1.6250 O.2    1 <0>      -0.4300
   20 C20       2.8689    -1.9991    -2.5347 C.2    1 <0>       0.4800
   21 O21       3.2460    -1.2943    -3.4408 O.2    1 <0>      -0.4900
   22 O22       3.7093    -2.3175    -1.5377 O.3    1 <0>      -0.3500
   23 C23       5.0559    -1.7796    -1.6134 C.3    1 <0>       0.0600
   24 C24       5.8608    -2.2470    -0.3992 C.3    1 <0>      -0.1500
   25 H25       1.0039     1.9031     0.0027 H      1 <0>       0.0500
   26 H26      -0.5459     1.8868    -0.8726 H      1 <0>       0.0500
   27 H27      -0.5289     1.8773     0.9072 H      1 <0>       0.0600
   28 H28       0.5293    -0.3651     0.8851 H      1 <0>       0.0600
   29 H29      -1.0205    -0.3814     0.0098 H      1 <0>       0.0600
   30 H30       0.1910    -0.1364    -2.1398 H      1 <0>       0.0700
   31 H31       1.7408    -0.1202    -1.2645 H      1 <0>       0.0600
   32 H32       1.2661    -2.3884    -0.3821 H      1 <0>       0.0900
   33 H33      -0.2836    -2.4046    -1.2575 H      1 <0>       0.0900
   34 H34       0.7003    -0.9240    -3.7575 H      1 <0>       0.1000
   35 H35       1.2253    -2.3654    -4.6603 H      1 <0>       0.0900
   36 H36      -0.7055    -3.6334    -3.7587 H      1 <0>       0.0800
   37 H37      -1.2305    -2.1920    -2.8559 H      1 <0>       0.0900
   38 H38      -2.1431    -0.2626    -4.0173 H      1 <0>       0.1500
   39 H39      -3.3343     0.5529    -6.0121 H      1 <0>       0.1600
   40 H40      -2.0906    -2.9090    -8.1702 H      1 <0>       0.1600
   41 H41      -0.8961    -3.7227    -6.1766 H      1 <0>       0.1500
   42 H42       2.5252    -4.0483    -4.3903 H      1 <0>       0.0800
   43 H43       2.9392    -5.3839    -3.2889 H      1 <0>       0.1000
   44 H44       1.3894    -5.4001    -4.1642 H      1 <0>       0.1000
   45 H45       5.5370    -2.1319    -2.5258 H      1 <0>       0.0700
   46 H46       5.0121    -0.6905    -1.6230 H      1 <0>       0.0700
   47 H47       6.8717    -1.8432    -0.4560 H      1 <0>       0.0800
   48 H48       5.3797    -1.8947     0.5132 H      1 <0>       0.0700
   49 H49       5.9046    -3.3361    -0.3896 H      1 <0>       0.0700
@<TRIPOS>BOND
   1    1    2 1
   2    1   25 1
   3    1   26 1
   4    1   27 1
   5    2    3 1
   6    2   28 1
   7    2   29 1
   8    3    4 1
   9    3   30 1
  10    3   31 1
  11    4    5 1
  12    4   32 1
  13    4   33 1
  14    5    6 1
  15    5   17 1
  16    5   20 1
  17    6    7 1
  18    6   34 1
  19    6   35 1
  20    7    8 1
  21    7   36 1
  22    7   37 1
  23    8   16 ar
  24    8    9 ar
  25    9   10 ar
  26    9   38 1
  27   10   11 ar
  28   10   39 1
  29   11   12 1
  30   11   15 ar
  31   12   13 2
  32   12   14 2
  33   15   16 ar
  34   15   40 1
  35   16   41 1
  36   17   18 1
  37   17   19 2
  38   18   42 1
  39   18   43 1
  40   18   44 1
  41   20   21 2
  42   20   22 1
  43   22   23 1
  44   23   24 1
  45   23   45 1
  46   23   46 1
  47   24   47 1
  48   24   48 1
  49   24   49 1


@<TRIPOS>MOLECULE
C1C(C2C(C2O1)C(=O)O)(C(=O)O)N
  21   22    0    0    0
SMALL
USER_CHARGES
NO_NAME
@<TRIPOS>ATOM
    1 N1       -0.0116     1.0048     0.0076 N.4    1 <0>      -0.6000
    2 H2        0.0021    -0.0041     0.0020 H      1 <0>       0.4300
    3 H3        0.9350     1.3541     0.0004 H      1 <0>       0.4200
    4 H4       -0.4996     1.3391    -0.8099 H      1 <0>       0.4300
    5 C5       -0.6992     1.4786     1.2162 C.3    1 <0>      -0.0300
    6 C6       -2.1425     1.0450     1.2146 C.2    1 <0>       0.5100
    7 O7       -2.5781     0.3794     0.2906 O.co2  1 <0>      -0.6800
    8 O8       -2.8746     1.3599     2.1373 O.co2  1 <0>      -0.6300
    9 C9       -0.5805     3.0180     1.3515 C.3    1 <0>       0.0600
   10 O10       0.7322     3.2059     1.9225 O.3    1 <0>      -0.3600
   11 C11       0.9138     2.1716     2.9050 C.3    1 <0>       0.0300
   12 H12       0.9885     2.4808     3.9476 H      1 <0>       0.1500
   13 C13       0.0238     0.9835     2.4917 C.3    1 <0>      -0.1800
   14 H14      -0.5507     0.4071     3.2168 H      1 <0>       0.1500
   15 C15       1.5883     0.8697     2.4643 C.3    1 <0>      -0.1700
   16 H16       2.0741     0.8556     1.4887 H      1 <0>       0.0900
   17 C17       2.2421     0.0252     3.5275 C.2    1 <0>       0.5200
   18 O18       3.1866    -0.6909     3.2419 O.co2  1 <0>      -0.6800
   19 O19       1.8265     0.0580     4.6733 O.co2  1 <0>      -0.6700
   20 H20      -0.6456     3.4954     0.3737 H      1 <0>       0.1000
   21 H21      -1.3490     3.4049     2.0206 H      1 <0>       0.1100
@<TRIPOS>BOND
   1    1    2 1
   2    1    3 1
   3    1    4 1
   4    1    5 1
   5    5   13 1
   6    5    6 1
   7    5    9 1
   8    6    7 ar
   9    6    8 ar
  10    9   10 1
  11    9   20 1
  12    9   21 1
  13   10   11 1
  14   11   12 1
  15   11   15 1
  16   11   13 1
  17   13   14 1
  18   13   15 1
  19   15   16 1
  20   15   17 1
  21   17   18 ar
  22   17   19 ar


@<TRIPOS>MOLECULE
CC1=CN=C(N1)C2=CN=C(N=C2C3=C(C=C(C=C3)Cl)Cl)NCCNC4=NC=C(C=C4)C#N
50    53    1     0     0
SMALL
USER_CHARGES
@<TRIPOS>ATOM
1      C1      2.8925    1.0268    0.6249 C.3      1 ZINC000029053046   -0.0700
2      C2      2.4105   -0.3963    0.5084 C.2      1 ZINC000029053046    0.0100
3      C3      2.5859   -1.2034   -0.5570 C.2      1 ZINC000029053046   -0.0400
4      N4      1.9987   -2.4034   -0.2526 N.pl3    1 ZINC000029053046   -0.5700
5      C5      1.4787   -2.2856    1.0038 C.2      1 ZINC000029053046    0.2600
6      C6      0.7522   -3.3385    1.7413 C.ar     1 ZINC000029053046   -0.1600
7      C7      0.6345   -4.6298    1.2197 C.ar     1 ZINC000029053046    0.2100
8      N8     -0.0231   -5.5445    1.9102 N.ar     1 ZINC000029053046   -0.5600
9      C9     -0.5695   -5.2564    3.0836 C.ar     1 ZINC000029053046    0.5800
10     N10    -1.2479   -6.2481    3.7685 N.pl3    1 ZINC000029053046   -0.6900
11     C11    -1.3543   -7.5923    3.1958 C.3      1 ZINC000029053046    0.1300
12     C12    -2.1479   -8.4905    4.1468 C.3      1 ZINC000029053046    0.1100
13     N13    -2.2543   -9.8347    3.5741 N.pl3    1 ZINC000029053046   -0.7100
14     C14    -2.9341  -10.8285    4.2604 C.ar     1 ZINC000029053046    0.4300
15     C15    -3.5175  -10.5369    5.4915 C.ar     1 ZINC000029053046   -0.2400
16     C16    -4.1888  -11.5208    6.1668 C.ar     1 ZINC000029053046    0.0200
17     C17    -4.2648  -12.7971    5.5887 C.ar     1 ZINC000029053046   -0.1500
18     C18    -4.9567  -13.8575    6.2576 C.1      1 ZINC000029053046    0.2600
19     N19    -5.5056  -14.6987    6.7882 N.1      1 ZINC000029053046   -0.4200
20     C20    -3.6565  -13.0180    4.3516 C.ar     1 ZINC000029053046    0.2100
21     N21    -3.0247  -12.0418    3.7334 N.ar     1 ZINC000029053046   -0.5400
22     N22    -0.4853   -4.0489    3.6201 N.ar     1 ZINC000029053046   -0.5400
23     C23     0.1628   -3.0705    2.9945 C.ar     1 ZINC000029053046    0.3000
24     C24     0.2552   -1.7215    3.5978 C.ar     1 ZINC000029053046    0.0000
25     C25    -0.6611   -0.7317    3.2430 C.ar     1 ZINC000029053046   -0.0500
26     C26    -0.5704    0.5235    3.8081 C.ar     1 ZINC000029053046   -0.1000
27     C27     0.4280    0.8024    4.7263 C.ar     1 ZINC000029053046   -0.0100
28     Cl28    0.5349    2.3843    5.4334 Cl       1 ZINC000029053046   -0.0600
29     C29     1.3408   -0.1755    5.0831 C.ar     1 ZINC000029053046   -0.1000
30     C30     1.2565   -1.4371    4.5285 C.ar     1 ZINC000029053046    0.0200
31     Cl31    2.4012   -2.6628    4.9768 Cl       1 ZINC000029053046   -0.0600
32     N32     1.7407   -1.0752    1.4474 N.2      1 ZINC000029053046   -0.4500
33     H33     3.8976    1.0367    1.0466 H        1 ZINC000029053046    0.0700
34     H34     2.9085    1.4870   -0.3631 H        1 ZINC000029053046    0.0700
35     H35     2.2200    1.5861    1.2754 H        1 ZINC000029053046    0.0700
36     H36     3.0933   -0.9518   -1.4765 H        1 ZINC000029053046    0.1800
37     H37     1.9595   -3.1876   -0.8222 H        1 ZINC000029053046    0.4200
38     H38     1.0748   -4.8765    0.2649 H        1 ZINC000029053046    0.1700
39     H39    -1.6532   -6.0536    4.6280 H        1 ZINC000029053046    0.4200
40     H40    -1.8662   -7.5384    2.2350 H        1 ZINC000029053046    0.0800
41     H41    -0.3562   -8.0064    3.0530 H        1 ZINC000029053046    0.0800
42     H42    -1.6360   -8.5444    5.1076 H        1 ZINC000029053046    0.0800
43     H43    -3.1460   -8.0763    4.2896 H        1 ZINC000029053046    0.0800
44     H44    -1.8489  -10.0292    2.7146 H        1 ZINC000029053046    0.4100
45     H45    -3.4406   -9.5441    5.9095 H        1 ZINC000029053046    0.1400
46     H46    -4.6491  -11.3193    7.1228 H        1 ZINC000029053046    0.1400
47     H47    -3.7076  -13.9960    3.8963 H        1 ZINC000029053046    0.1700
48     H48    -1.4401   -0.9474    2.5267 H        1 ZINC000029053046    0.1300
49     H49    -1.2794    1.2905    3.5335 H        1 ZINC000029053046    0.1400
50     H50     2.1174    0.0476    5.7997 H        1 ZINC000029053046    0.1400
@<TRIPOS>BOND
1     1     2     1
2     1     33    1
3     1     34    1
4     1     35    1
5     2     32    1
6     2     3     2
7     3     4     1
8     3     36    1
9     4     5     1
10    4     37    1
11    5     6     1
12    5     32    2
13    6     23    ar
14    6     7     ar
15    7     8     ar
16    7     38    1
17    8     9     ar
18    9     10    1
19    9     22    ar
20    10    11    1
21    10    39    1
22    11    12    1
23    11    40    1
24    11    41    1
25    12    13    1
26    12    42    1
27    12    43    1
28    13    14    1
29    13    44    1
30    14    21    ar
31    14    15    ar
32    15    16    ar
33    15    45    1
34    16    17    ar
35    16    46    1
36    17    18    1
37    17    20    ar
38    18    19    3
39    20    21    ar
40    20    47    1
41    22    23    ar
42    23    24    1
43    24    30    ar
44    24    25    ar
45    25    26    ar
46    25    48    1
47    26    27    ar
48    26    49    1
49    27    28    1
50    27    29    ar
51    29    30    ar
52    29    50    1
53    30    31    1
@<TRIPOS>SUBSTRUCTURE
1   ZINC000029053046 1     RESIDUE    1   A     ZIN   1


@<TRIPOS>MOLECULE
C1=CC=C(C=C1)COC2=CC=C(C=C2)C3C(=C(C(=O)N3C4=NN=C(S4)SCC5=CC=CC=C5)O)C(=O)C6=CC7=CC=CC=C7O6
69    75    1     0     0
SMALL
USER_CHARGES
@<TRIPOS>ATOM
1      O1      0.0936   -0.0259   -0.6205 O.2      1 ZINC000008441248   -0.4700
2      C2      0.0490    1.1899   -0.5509 C.2      1 ZINC000008441248    0.3800
3      C3     -1.1606    2.0294   -0.7469 C.2      1 ZINC000008441248    0.4800
4      O4     -2.2687    1.6036   -1.0042 O.2      1 ZINC000008441248   -0.4800
5      N5     -0.8506    3.3282   -0.5976 N.am     1 ZINC000008441248   -0.5000
6      C6     -1.7407    4.3896   -0.7124 C.2      1 ZINC000008441248    0.2800
7      N7     -1.4517    5.6492   -0.5754 N.2      1 ZINC000008441248   -0.2800
8      N8     -2.3859    6.4849   -0.7131 N.2      1 ZINC000008441248   -0.2300
9      C9     -3.5737    6.0260   -0.9829 C.2      1 ZINC000008441248   -0.0600
10     S10    -5.0302    6.9891   -1.2188 S.3      1 ZINC000008441248    0.0200
11     C11    -4.3517    8.6496   -0.9769 C.3      1 ZINC000008441248   -0.0700
12     C12    -5.4499    9.6691   -1.1364 C.ar     1 ZINC000008441248   -0.0800
13     C13    -5.7193   10.2058   -2.3816 C.ar     1 ZINC000008441248   -0.1000
14     C14    -6.7266   11.1410   -2.5279 C.ar     1 ZINC000008441248   -0.1200
15     C15    -7.4650   11.5392   -1.4292 C.ar     1 ZINC000008441248   -0.1100
16     C16    -7.1962   11.0019   -0.1842 C.ar     1 ZINC000008441248   -0.1200
17     C17    -6.1917   10.0635   -0.0386 C.ar     1 ZINC000008441248   -0.1000
18     S18    -3.4629    4.2672   -1.0776 S.3      1 ZINC000008441248    0.1700
19     C19     0.5788    3.4439   -0.2936 C.3      1 ZINC000008441248    0.2800
20     H20     0.7166    3.9145    0.6799 H        1 ZINC000008441248    0.0900
21     C21     1.2697    4.2534   -1.3605 C.ar     1 ZINC000008441248   -0.0900
22     C22     0.8993    4.1090   -2.6848 C.ar     1 ZINC000008441248   -0.0700
23     C23     1.5311    4.8499   -3.6647 C.ar     1 ZINC000008441248   -0.1500
24     C24     2.5378    5.7398   -3.3190 C.ar     1 ZINC000008441248    0.1200
25     O25     3.1606    6.4702   -4.2811 O.3      1 ZINC000008441248   -0.3100
26     C26     4.1876    7.3664   -3.8522 C.3      1 ZINC000008441248    0.1000
27     C27     4.7591    8.0844   -5.0476 C.ar     1 ZINC000008441248   -0.0900
28     C28     5.8309    7.5425   -5.7321 C.ar     1 ZINC000008441248   -0.1000
29     C29     6.3551    8.2010   -6.8286 C.ar     1 ZINC000008441248   -0.1200
30     C30     5.8072    9.4014   -7.2409 C.ar     1 ZINC000008441248   -0.1100
31     C31     4.7349    9.9429   -6.5570 C.ar     1 ZINC000008441248   -0.1300
32     C32     4.2080    9.2821   -5.4631 C.ar     1 ZINC000008441248   -0.1000
33     C33     2.9073    5.8832   -1.9895 C.ar     1 ZINC000008441248   -0.2100
34     C34     2.2691    5.1434   -1.0128 C.ar     1 ZINC000008441248   -0.0300
35     C35     1.1290    2.0366   -0.2661 C.2      1 ZINC000008441248   -0.4800
36     C36     2.4380    1.6600   -0.0167 C.2      1 ZINC000008441248    0.4300
37     O37     3.3956    2.6021    0.1321 O.3      1 ZINC000008441248   -0.5900
38     C38     2.7843    0.2427    0.0855 C.2      1 ZINC000008441248    0.0600
39     C39     3.8307   -0.3597   -0.5462 C.2      1 ZINC000008441248   -0.1900
40     C40     3.8028   -1.7273   -0.1749 C.ar     1 ZINC000008441248   -0.1200
41     C41     4.6004   -2.8325   -0.4910 C.ar     1 ZINC000008441248   -0.0800
42     C42     4.3069   -4.0553    0.0426 C.ar     1 ZINC000008441248   -0.1400
43     C43     3.2231   -4.2096    0.8961 C.ar     1 ZINC000008441248   -0.1100
44     C44     2.4241   -3.1336    1.2207 C.ar     1 ZINC000008441248   -0.1000
45     C45     2.7026   -1.8805    0.6906 C.ar     1 ZINC000008441248    0.0500
46     O46     2.1201   -0.6717    0.8254 O.3      1 ZINC000008441248   -0.1500
47     H47    -3.9272    8.7264    0.0241 H        1 ZINC000008441248    0.1100
48     H48    -3.5732    8.8353   -1.7169 H        1 ZINC000008441248    0.1100
49     H49    -5.1424    9.8947   -3.2400 H        1 ZINC000008441248    0.1300
50     H50    -6.9366   11.5608   -3.5005 H        1 ZINC000008441248    0.1200
51     H51    -8.2516   12.2704   -1.5434 H        1 ZINC000008441248    0.1200
52     H52    -7.7728   11.3133    0.6743 H        1 ZINC000008441248    0.1200
53     H53    -5.9817    9.6437    0.9340 H        1 ZINC000008441248    0.1300
54     H54     0.1156    3.4162   -2.9533 H        1 ZINC000008441248    0.1100
55     H55     1.2419    4.7363   -4.6990 H        1 ZINC000008441248    0.1200
56     H56     3.7681    8.0942   -3.1577 H        1 ZINC000008441248    0.0700
57     H57     4.9773    6.8030   -3.3551 H        1 ZINC000008441248    0.0700
58     H58     6.2589    6.6047   -5.4100 H        1 ZINC000008441248    0.1300
59     H59     7.1929    7.7780   -7.3630 H        1 ZINC000008441248    0.1200
60     H60     6.2173    9.9163   -8.0972 H        1 ZINC000008441248    0.1200
61     H61     4.3071   10.8808   -6.8789 H        1 ZINC000008441248    0.1200
62     H62     3.3701    9.7052   -4.9288 H        1 ZINC000008441248    0.1200
63     H63     3.6909    6.5750   -1.7179 H        1 ZINC000008441248    0.1200
64     H64     2.5561    5.2549    0.0224 H        1 ZINC000008441248    0.1300
65     H65     4.5443    0.1141   -1.2041 H        1 ZINC000008441248    0.1500
66     H66     5.4449   -2.7194   -1.1546 H        1 ZINC000008441248    0.1200
67     H67     4.9224   -4.9084   -0.2017 H        1 ZINC000008441248    0.1200
68     H68     3.0032   -5.1827    1.3099 H        1 ZINC000008441248    0.1300
69     H69     1.5831   -3.2652    1.8855 H        1 ZINC000008441248    0.1300
@<TRIPOS>BOND
1     1     2     2
2     2     35    1
3     2     3     1
4     3     4     2
5     3     5     am
6     5     6     1
7     5     19    1
8     6     18    1
9     6     7     2
10    7     8     1
11    8     9     2
12    9     10    1
13    9     18    1
14    10    11    1
15    11    12    1
16    11    47    1
17    11    48    1
18    12    17    ar
19    12    13    ar
20    13    14    ar
21    13    49    1
22    14    15    ar
23    14    50    1
24    15    16    ar
25    15    51    1
26    16    17    ar
27    16    52    1
28    17    53    1
29    19    20    1
30    19    21    1
31    19    35    1
32    21    34    ar
33    21    22    ar
34    22    23    ar
35    22    54    1
36    23    24    ar
37    23    55    1
38    24    25    1
39    24    33    ar
40    25    26    1
41    26    27    1
42    26    56    1
43    26    57    1
44    27    32    ar
45    27    28    ar
46    28    29    ar
47    28    58    1
48    29    30    ar
49    29    59    1
50    30    31    ar
51    30    60    1
52    31    32    ar
53    31    61    1
54    32    62    1
55    33    34    ar
56    33    63    1
57    34    64    1
58    35    36    2
59    36    37    1
60    36    38    1
61    38    46    1
62    38    39    2
63    39    40    1
64    39    65    1
65    40    45    ar
66    40    41    ar
67    41    42    ar
68    41    66    1
69    42    43    ar
70    42    67    1
71    43    44    ar
72    43    68    1
73    44    45    ar
74    44    69    1
75    45    46    1
@<TRIPOS>SUBSTRUCTURE
1   ZINC000008441248 1     RESIDUE    1   A     ZIN   1


@<TRIPOS>MOLECULE
CCCCCOC1=CC=C(C=C1)C2C(=C(C(=O)N2C3=NN=C(S3)SCC4=CC=CC=C4F)O)C(=O)C5=CC6=CC=CC=C6O5
71    76    1     0     0
SMALL
USER_CHARGES
@<TRIPOS>ATOM
1      C1     -1.4831    2.8572    0.1378 C.3      1 ZINC000008383476   -0.1500
2      C2     -1.1668    1.3641    0.2454 C.3      1 ZINC000008383476   -0.1200
3      C3     -2.4671    0.5609    0.1746 C.3      1 ZINC000008383476   -0.1200
4      C4     -2.1507   -0.9322    0.2821 C.3      1 ZINC000008383476   -0.1200
5      C5     -3.4510   -1.7354    0.2113 C.3      1 ZINC000008383476    0.0600
6      O6     -3.1555   -3.1299    0.3118 O.3      1 ZINC000008383476   -0.3200
7      C7     -4.2079   -3.9885    0.2656 C.ar     1 ZINC000008383476    0.1200
8      C8     -5.4980   -3.4992    0.1206 C.ar     1 ZINC000008383476   -0.2100
9      C9     -6.5661   -4.3740    0.0735 C.ar     1 ZINC000008383476   -0.0300
10     C10    -6.3503   -5.7362    0.1710 C.ar     1 ZINC000008383476   -0.0900
11     C11    -7.5174   -6.6883    0.1198 C.3      1 ZINC000008383476    0.2800
12     H12    -8.3737   -6.2040   -0.3496 H        1 ZINC000008383476    0.0900
13     C13    -7.8790   -7.1397    1.5160 C.2      1 ZINC000008383476   -0.4800
14     C14    -8.2896   -6.3395    2.5688 C.2      1 ZINC000008383476    0.4300
15     O15    -8.2993   -4.9949    2.4318 O.3      1 ZINC000008383476   -0.5900
16     C16    -8.7130   -6.9493    3.8290 C.2      1 ZINC000008383476    0.0600
17     C17    -8.2946   -6.5671    5.0682 C.2      1 ZINC000008383476   -0.1900
18     C18    -8.9443   -7.4141    6.0007 C.ar     1 ZINC000008383476   -0.1200
19     C19    -8.9233   -7.5138    7.3961 C.ar     1 ZINC000008383476   -0.0800
20     C20    -9.6825   -8.4628    8.0196 C.ar     1 ZINC000008383476   -0.1400
21     C21   -10.4749   -9.3293    7.2792 C.ar     1 ZINC000008383476   -0.1100
22     C22   -10.5100   -9.2486    5.9030 C.ar     1 ZINC000008383476   -0.1000
23     C23    -9.7471   -8.2915    5.2467 C.ar     1 ZINC000008383476    0.0500
24     O24    -9.5840   -7.9752    3.9458 O.3      1 ZINC000008383476   -0.1500
25     C25    -7.7154   -8.5317    1.5304 C.2      1 ZINC000008383476    0.3800
26     O26    -7.9119   -9.2641    2.4843 O.2      1 ZINC000008383476   -0.4700
27     C27    -7.2620   -8.9604    0.1825 C.2      1 ZINC000008383476    0.4800
28     O28    -7.0275  -10.1076   -0.1404 O.2      1 ZINC000008383476   -0.4800
29     N29    -7.1495   -7.8939   -0.6286 N.am     1 ZINC000008383476   -0.5000
30     C30    -6.7494   -7.9295   -1.9592 C.2      1 ZINC000008383476    0.2800
31     N31    -6.6321   -6.9056   -2.7510 N.2      1 ZINC000008383476   -0.2800
32     N32    -6.2550   -7.1186   -3.9353 N.2      1 ZINC000008383476   -0.2300
33     C33    -6.0100   -8.3495   -4.2804 C.2      1 ZINC000008383476   -0.0600
34     S34    -5.4739   -8.8960   -5.8674 S.3      1 ZINC000008383476    0.0300
35     C35    -5.3987   -7.3104   -6.7370 C.3      1 ZINC000008383476   -0.0700
36     C36    -4.9493   -7.5373   -8.1574 C.ar     1 ZINC000008383476   -0.1100
37     C37    -3.6031   -7.5148   -8.4684 C.ar     1 ZINC000008383476   -0.0700
38     C38    -3.1905   -7.7229   -9.7715 C.ar     1 ZINC000008383476   -0.1300
39     C39    -4.1239   -7.9532  -10.7647 C.ar     1 ZINC000008383476   -0.0800
40     C40    -5.4710   -7.9756  -10.4561 C.ar     1 ZINC000008383476   -0.1600
41     C41    -5.8849   -7.7740   -9.1505 C.ar     1 ZINC000008383476    0.1200
42     F42    -7.2014   -7.7957   -8.8477 F        1 ZINC000008383476   -0.1300
43     S43    -6.3028   -9.3722   -2.8722 S.3      1 ZINC000008383476    0.1700
44     C44    -5.0655   -6.2264    0.3151 C.ar     1 ZINC000008383476   -0.0700
45     C45    -3.9936   -5.3561    0.3575 C.ar     1 ZINC000008383476   -0.1600
46     H46    -0.5568    3.4294    0.1883 H        1 ZINC000008383476    0.0500
47     H47    -1.9815    3.0555   -0.8110 H        1 ZINC000008383476    0.0500
48     H48    -2.1365    3.1502    0.9596 H        1 ZINC000008383476    0.0500
49     H49    -0.5134    1.0710   -0.5764 H        1 ZINC000008383476    0.0600
50     H50    -0.6684    1.1657    1.1943 H        1 ZINC000008383476    0.0600
51     H51    -3.1204    0.8540    0.9964 H        1 ZINC000008383476    0.0700
52     H52    -2.9654    0.7592   -0.7743 H        1 ZINC000008383476    0.0600
53     H53    -1.4973   -1.2253   -0.5397 H        1 ZINC000008383476    0.0700
54     H54    -1.6523   -1.1306    1.2310 H        1 ZINC000008383476    0.0700
55     H55    -4.1043   -1.4423    1.0331 H        1 ZINC000008383476    0.0600
56     H56    -3.9493   -1.5371   -0.7376 H        1 ZINC000008383476    0.0600
57     H57    -5.6671   -2.4352    0.0451 H        1 ZINC000008383476    0.1200
58     H58    -7.5705   -3.9935   -0.0393 H        1 ZINC000008383476    0.1300
59     H59    -7.6007   -5.7715    5.2962 H        1 ZINC000008383476    0.1500
60     H60    -8.3088   -6.8430    7.9782 H        1 ZINC000008383476    0.1200
61     H61    -9.6659   -8.5399    9.0967 H        1 ZINC000008383476    0.1200
62     H62   -11.0698  -10.0746    7.7862 H        1 ZINC000008383476    0.1300
63     H63   -11.1298   -9.9281    5.3368 H        1 ZINC000008383476    0.1300
64     H64    -6.3863   -6.8491   -6.7377 H        1 ZINC000008383476    0.1100
65     H65    -4.6908   -6.6526   -6.2327 H        1 ZINC000008383476    0.1100
66     H66    -2.8730   -7.3343   -7.6933 H        1 ZINC000008383476    0.1400
67     H67    -2.1382   -7.7052  -10.0137 H        1 ZINC000008383476    0.1300
68     H68    -3.8005   -8.1152  -11.7823 H        1 ZINC000008383476    0.1300
69     H69    -6.2001   -8.1549  -11.2324 H        1 ZINC000008383476    0.1400
70     H70    -4.8995   -7.2909    0.3907 H        1 ZINC000008383476    0.1100
71     H71    -2.9902   -5.7395    0.4700 H        1 ZINC000008383476    0.1200
@<TRIPOS>BOND
1     1     2     1
2     1     46    1
3     1     47    1
4     1     48    1
5     2     3     1
6     2     49    1
7     2     50    1
8     3     4     1
9     3     51    1
10    3     52    1
11    4     5     1
12    4     53    1
13    4     54    1
14    5     6     1
15    5     55    1
16    5     56    1
17    6     7     1
18    7     45    ar
19    7     8     ar
20    8     9     ar
21    8     57    1
22    9     10    ar
23    9     58    1
24    10    11    1
25    10    44    ar
26    11    12    1
27    11    29    1
28    11    13    1
29    13    14    2
30    13    25    1
31    14    15    1
32    14    16    1
33    16    24    1
34    16    17    2
35    17    18    1
36    17    59    1
37    18    23    ar
38    18    19    ar
39    19    20    ar
40    19    60    1
41    20    21    ar
42    20    61    1
43    21    22    ar
44    21    62    1
45    22    23    ar
46    22    63    1
47    23    24    1
48    25    26    2
49    25    27    1
50    27    28    2
51    27    29    am
52    29    30    1
53    30    43    1
54    30    31    2
55    31    32    1
56    32    33    2
57    33    34    1
58    33    43    1
59    34    35    1
60    35    36    1
61    35    64    1
62    35    65    1
63    36    41    ar
64    36    37    ar
65    37    38    ar
66    37    66    1
67    38    39    ar
68    38    67    1
69    39    40    ar
70    39    68    1
71    40    41    ar
72    40    69    1
73    41    42    1
74    44    45    ar
75    44    70    1
76    45    71    1
@<TRIPOS>SUBSTRUCTURE
1   ZINC000008383476 1     RESIDUE    1   A     ZIN   1


@<TRIPOS>MOLECULE
CC12C(C(CC(O1)N3C4=CC=CC=C4C5=C6C(=C7C8=CC=CC=C8N2C7=C53)CNC6=O)NC)OC
  62   69    0    0    0
SMALL
USER_CHARGES
NO_NAME
@<TRIPOS>ATOM
    1 C1       -0.9661     1.0031     0.4683 C.3    1 <0>      -0.0500
    2 N2        0.0189     0.0032     0.0346 N.4    1 <0>      -0.5200
    3 H3       -0.4575    -0.7682    -0.4082 H      1 <0>       0.4300
    4 H4        0.6591     0.4245    -0.6217 H      1 <0>       0.4300
    5 C5        0.7653    -0.4868     1.2011 C.3    1 <0>      -0.0100
    6 H6        0.4030     0.0058     2.1034 H      1 <0>       0.1600
    7 C7        2.2595    -0.1983     1.0181 C.3    1 <0>      -0.1800
    8 C8        2.7619    -0.9023    -0.2361 C.3    1 <0>       0.3000
    9 H9        3.8508    -0.8586    -0.2138 H      1 <0>       0.1600
   10 O10       2.4012    -2.2646    -0.2735 O.3    1 <0>      -0.3200
   11 C11       1.0934    -2.6719     0.0586 C.3    1 <0>       0.3300
   12 C12       1.1521    -4.1700     0.3640 C.3    1 <0>      -0.1700
   13 C13       0.5850    -2.0035     1.3313 C.3    1 <0>       0.0400
   14 H14       1.1399    -2.3845     2.1886 H      1 <0>       0.1400
   15 O15      -0.8050    -2.2900     1.4976 O.3    1 <0>      -0.3600
   16 C16      -1.2299    -2.3358     2.8612 C.3    1 <0>       0.0200
   17 N17       0.1539    -2.4960    -1.0500 N.pl3  1 <0>      -0.5100
   18 C18      -0.9555    -3.2665    -1.3051 C.ar   1 <0>       0.1500
   19 C19      -1.5981    -2.7707    -2.4611 C.ar   1 <0>      -0.1000
   20 C20      -2.7601    -3.3595    -2.9591 C.ar   1 <0>      -0.0500
   21 C21      -3.2512    -4.4544    -2.2672 C.ar   1 <0>      -0.1300
   22 C22      -2.6226    -4.9436    -1.1358 C.ar   1 <0>      -0.0700
   23 C23      -1.4695    -4.3706    -0.6261 C.ar   1 <0>      -0.1300
   24 C24      -0.8079    -1.6281    -2.9233 C.ar   1 <0>      -0.0400
   25 C25       0.2584    -1.5088    -2.0185 C.ar   1 <0>       0.0800
   26 C26       1.2121    -0.4989    -2.1905 C.ar   1 <0>       0.0500
   27 C27       1.1050     0.3895    -3.2623 C.ar   1 <0>       0.0100
   28 C28       2.2461     1.2937    -3.1535 C.ar   1 <0>      -0.1100
   29 C29       2.6635     2.3660    -3.9439 C.ar   1 <0>      -0.0300
   30 C30       3.8158     3.0230    -3.5467 C.ar   1 <0>      -0.1400
   31 C31       4.5234     2.6394    -2.4210 C.ar   1 <0>      -0.0600
   32 C32       4.1270     1.5772    -1.6258 C.ar   1 <0>      -0.1400
   33 C33       2.9702     0.8975    -2.0046 C.ar   1 <0>       0.1300
   34 N34       2.3272    -0.1879    -1.4373 N.pl3  1 <0>      -0.5400
   35 C35       0.0235     0.2714    -4.1666 C.ar   1 <0>      -0.1200
   36 C36      -0.9183    -0.7356    -3.9848 C.ar   1 <0>      -0.0300
   37 C37      -1.9244    -0.5868    -5.0999 C.3    1 <0>       0.1400
   38 N38      -1.4787     0.5585    -5.9015 N.am   1 <0>      -0.7200
   39 C39      -0.3518     1.0487    -5.3578 C.2    1 <0>       0.5600
   40 O40       0.2696     2.0011    -5.7892 O.2    1 <0>      -0.5100
   41 H41      -0.4515     1.8364     0.9466 H      1 <0>       0.1200
   42 H42      -1.5200     1.3667    -0.3973 H      1 <0>       0.1300
   43 H43      -1.6578     0.5480     1.1772 H      1 <0>       0.1300
   44 H44       2.4126     0.8763     0.9178 H      1 <0>       0.1200
   45 H45       2.8092    -0.5644     1.8853 H      1 <0>       0.1500
   46 H46       2.0849    -4.3996     0.8789 H      1 <0>       0.1000
   47 H47       0.3096    -4.4447     0.9987 H      1 <0>       0.1000
   48 H48       1.1035    -4.7330    -0.5681 H      1 <0>       0.0900
   49 H49      -2.2962    -2.5584     2.9022 H      1 <0>       0.1100
   50 H50      -0.6761    -3.1126     3.3884 H      1 <0>       0.0600
   51 H51      -1.0416    -1.3715     3.3331 H      1 <0>       0.0500
   52 H52      -3.2535    -2.9798    -3.8415 H      1 <0>       0.1400
   53 H53      -4.1490    -4.9395    -2.6206 H      1 <0>       0.1300
   54 H54      -3.0458    -5.8006    -0.6330 H      1 <0>       0.1300
   55 H55      -0.9887    -4.7625     0.2580 H      1 <0>       0.1400
   56 H56       2.1142     2.6684    -4.8232 H      1 <0>       0.1600
   57 H57       4.1724     3.8577    -4.1318 H      1 <0>       0.1400
   58 H58       5.4152     3.1868    -2.1538 H      1 <0>       0.1400
   59 H59       4.6894     1.2880    -0.7504 H      1 <0>       0.1400
   60 H60      -1.9419    -1.4886    -5.7118 H      1 <0>       0.1100
   61 H61      -2.9148    -0.3933    -4.6879 H      1 <0>       0.1100
   62 H62      -1.9231     0.9040    -6.6914 H      1 <0>       0.4300
@<TRIPOS>BOND
   1    1    2 1
   2    1   41 1
   3    1   42 1
   4    1   43 1
   5    2    3 1
   6    2    4 1
   7    2    5 1
   8    5    6 1
   9    5   13 1
  10    5    7 1
  11    7    8 1
  12    7   44 1
  13    7   45 1
  14    8    9 1
  15    8   34 1
  16    8   10 1
  17   10   11 1
  18   11   12 1
  19   11   13 1
  20   11   17 1
  21   12   46 1
  22   12   47 1
  23   12   48 1
  24   13   14 1
  25   13   15 1
  26   15   16 1
  27   16   49 1
  28   16   50 1
  29   16   51 1
  30   17   25 1
  31   17   18 1
  32   18   23 ar
  33   18   19 ar
  34   19   20 ar
  35   19   24 1
  36   20   21 ar
  37   20   52 1
  38   21   22 ar
  39   21   53 1
  40   22   23 ar
  41   22   54 1
  42   23   55 1
  43   24   36 ar
  44   24   25 ar
  45   25   26 ar
  46   26   34 1
  47   26   27 ar
  48   27   28 1
  49   27   35 ar
  50   28   33 ar
  51   28   29 ar
  52   29   30 ar
  53   29   56 1
  54   30   31 ar
  55   30   57 1
  56   31   32 ar
  57   31   58 1
  58   32   33 ar
  59   32   59 1
  60   33   34 1
  61   35   39 1
  62   35   36 ar
  63   36   37 1
  64   37   38 1
  65   37   60 1
  66   37   61 1
  67   38   39 am
  68   38   62 1
  69   39   40 2


@<TRIPOS>MOLECULE
CN1C(=C(C=N1)Cl)C2=C(SC(=C2)C(=O)NC(CC3=CC(=CC=C3)F)CN)Cl
45    47    1     0     0
SMALL
USER_CHARGES
@<TRIPOS>ATOM
1      C1     -0.0178    1.4608    0.0101 C.3      1 ZINC000043197674    0.1000
2      N2      0.0021   -0.0041    0.0020 N.pl3    1 ZINC000043197674   -0.3500
3      N3      0.0086   -0.8237   -1.1338 N.2      1 ZINC000043197674   -0.2600
4      C4      0.0280   -2.0733   -0.7449 C.2      1 ZINC000043197674    0.0700
5      C5      0.0346   -2.1050    0.6507 C.2      1 ZINC000043197674   -0.1500
6      Cl6     0.0599   -3.5306    1.6411 Cl       1 ZINC000043197674   -0.0300
7      C7      0.0235   -0.8137    1.0987 C.2      1 ZINC000043197674    0.1300
8      C8      0.0254   -0.3757    2.5125 C.2      1 ZINC000043197674   -0.0600
9      C9      1.1718   -0.1402    3.2120 C.2      1 ZINC000043197674   -0.1300
10     Cl10    2.7741   -0.3132    2.5667 Cl       1 ZINC000043197674    0.0400
11     S11     0.8171    0.3482    4.8073 S.3      1 ZINC000043197674    0.3000
12     C12    -0.9123    0.2307    4.5197 C.2      1 ZINC000043197674   -0.3100
13     C13    -1.9540    0.5200    5.5088 C.2      1 ZINC000043197674    0.6000
14     O14    -3.1278    0.4078    5.2070 O.2      1 ZINC000043197674   -0.5300
15     N15    -1.6124    0.9105    6.7527 N.am     1 ZINC000043197674   -0.7300
16     C16    -2.6539    1.1998    7.7415 C.3      1 ZINC000043197674    0.1200
17     H17    -3.4950    0.5228    7.5920 H        1 ZINC000043197674    0.1300
18     C18    -3.1269    2.6454    7.5760 C.3      1 ZINC000043197674   -0.0200
19     N19    -3.5593    2.8633    6.1891 N.4      1 ZINC000043197674   -0.6300
20     H20    -2.7864    2.6888    5.5645 H        1 ZINC000043197674    0.4300
21     H21    -4.3173    2.2343    5.9703 H        1 ZINC000043197674    0.4400
22     H22    -3.8713    3.8166    6.0799 H        1 ZINC000043197674    0.4400
23     C23    -2.0879    1.0065    9.1498 C.3      1 ZINC000043197674   -0.0800
24     C24    -1.7354   -0.4443    9.3548 C.ar     1 ZINC000043197674   -0.0700
25     C25    -2.6790   -1.3201    9.8581 C.ar     1 ZINC000043197674   -0.1200
26     C26    -2.3571   -2.6514   10.0467 C.ar     1 ZINC000043197674   -0.0800
27     C27    -1.0914   -3.1080    9.7321 C.ar     1 ZINC000043197674   -0.1400
28     C28    -0.1454   -2.2317    9.2273 C.ar     1 ZINC000043197674    0.1100
29     F29     1.0924   -2.6770    8.9194 F        1 ZINC000043197674   -0.1300
30     C30    -0.4705   -0.9000    9.0340 C.ar     1 ZINC000043197674   -0.1500
31     C31    -1.1376   -0.1647    3.2353 C.2      1 ZINC000043197674    0.0100
32     H32     1.0048    1.8381    0.0023 H        1 ZINC000043197674    0.0800
33     H33    -0.5450    1.8219   -0.8730 H        1 ZINC000043197674    0.1000
34     H34    -0.5280    1.8123    0.9069 H        1 ZINC000043197674    0.0800
35     H35     0.0367   -2.9357   -1.3950 H        1 ZINC000043197674    0.2000
36     H36    -0.6770    1.0000    6.9932 H        1 ZINC000043197674    0.4100
37     H37    -3.9619    2.8339    8.2508 H        1 ZINC000043197674    0.1500
38     H38    -2.3081    3.3249    7.8124 H        1 ZINC000043197674    0.1400
39     H39    -1.1935    1.6180    9.2690 H        1 ZINC000043197674    0.1000
40     H40    -2.8339    1.3066    9.8856 H        1 ZINC000043197674    0.1100
41     H41    -3.6684   -0.9640   10.1046 H        1 ZINC000043197674    0.1300
42     H42    -3.0950   -3.3347   10.4403 H        1 ZINC000043197674    0.1400
43     H43    -0.8400   -4.1478    9.8801 H        1 ZINC000043197674    0.1400
44     H44     0.2664   -0.2157    8.6401 H        1 ZINC000043197674    0.1300
45     H45    -2.1257   -0.3073    2.8234 H        1 ZINC000043197674    0.1700
@<TRIPOS>BOND
1     1     2     1
2     1     32    1
3     1     33    1
4     1     34    1
5     2     7     1
6     2     3     1
7     3     4     2
8     4     5     1
9     4     35    1
10    5     6     1
11    5     7     2
12    7     8     1
13    8     31    1
14    8     9     2
15    9     10    1
16    9     11    1
17    11    12    1
18    12    13    1
19    12    31    2
20    13    14    2
21    13    15    am
22    15    16    1
23    15    36    1
24    16    17    1
25    16    18    1
26    16    23    1
27    18    19    1
28    18    37    1
29    18    38    1
30    19    20    1
31    19    21    1
32    19    22    1
33    23    24    1
34    23    39    1
35    23    40    1
36    24    30    ar
37    24    25    ar
38    25    26    ar
39    25    41    1
40    26    27    ar
41    26    42    1
42    27    28    ar
43    27    43    1
44    28    29    1
45    28    30    ar
46    30    44    1
47    31    45    1
@<TRIPOS>SUBSTRUCTURE
1   ZINC000043197674 1     RESIDUE    1   A     ZIN   1


@<TRIPOS>MOLECULE
C1=CC=C(C(=C1)C2=C(C(=O)NC2=O)NC3=CC(=C(C=C3)O)Cl)[N+](=O)[O-]
35    37    1     0     0
SMALL
USER_CHARGES
@<TRIPOS>ATOM
1      O1      0.3194   -0.3698   -0.3359 O.2      1 ZINC000002526465   -0.4400
2      C2      0.1085    0.8251   -0.2936 C.2      1 ZINC000002526465    0.5500
3      N3     -1.0973    1.4144   -0.3752 N.am     1 ZINC000002526465   -0.6800
4      C4     -0.9668    2.7496   -0.2934 C.2      1 ZINC000002526465    0.5900
5      O5     -1.8764    3.5540   -0.3358 O.2      1 ZINC000002526465   -0.4500
6      C6      0.4635    3.0766   -0.1432 C.2      1 ZINC000002526465   -0.1300
7      C7      1.0545    4.4261   -0.0178 C.ar     1 ZINC000002526465    0.0400
8      C8      1.7232    5.0020   -1.0996 C.ar     1 ZINC000002526465   -0.1000
9      C9      2.2724    6.2615   -0.9758 C.ar     1 ZINC000002526465   -0.0600
10     C10     2.1616    6.9537    0.2171 C.ar     1 ZINC000002526465   -0.1100
11     C11     1.5000    6.3887    1.2934 C.ar     1 ZINC000002526465   -0.0500
12     C12     0.9414    5.1327    1.1814 C.ar     1 ZINC000002526465   -0.0200
13     N13     0.2337    4.5301    2.3335 N.pl3    1 ZINC000002526465    0.0300
14     O14     0.1442    5.1436    3.3819 O.2      1 ZINC000002526465   -0.1500
15     O15    -0.2591    3.4208    2.2331 O.2      1 ZINC000002526465   -0.1600
16     C16     1.1363    1.8823   -0.1368 C.2      1 ZINC000002526465    0.1500
17     N17     2.4966    1.7010   -0.0167 N.pl3    1 ZINC000002526465   -0.6500
18     C18     3.0081    0.9208    1.0229 C.ar     1 ZINC000002526465    0.1900
19     C19     2.1621    0.4487    2.0189 C.ar     1 ZINC000002526465   -0.1400
20     C20     2.6683   -0.3230    3.0462 C.ar     1 ZINC000002526465   -0.0900
21     C21     4.0209   -0.6268    3.0847 C.ar     1 ZINC000002526465    0.0800
22     O22     4.5181   -1.3868    4.0968 O.3      1 ZINC000002526465   -0.4800
23     C23     4.8680   -0.1558    2.0900 C.ar     1 ZINC000002526465   -0.0200
24     Cl24    6.5610   -0.5368    2.1394 Cl       1 ZINC000002526465   -0.0500
25     C25     4.3627    0.6114    1.0586 C.ar     1 ZINC000002526465   -0.1500
26     H26    -1.9393    0.9441   -0.4786 H        1 ZINC000002526465    0.4400
27     H27     1.8107    4.4626   -2.0312 H        1 ZINC000002526465    0.1500
28     H28     2.7902    6.7080   -1.8118 H        1 ZINC000002526465    0.1500
29     H29     2.5936    7.9393    0.3088 H        1 ZINC000002526465    0.1500
30     H30     1.4174    6.9343    2.2219 H        1 ZINC000002526465    0.1600
31     H31     3.0992    2.1150   -0.6541 H        1 ZINC000002526465    0.4200
32     H32     1.1088    0.6855    1.9898 H        1 ZINC000002526465    0.1300
33     H33     2.0105   -0.6899    3.8202 H        1 ZINC000002526465    0.1500
34     H34     4.5114   -2.3366    3.9154 H        1 ZINC000002526465    0.3900
35     H35     5.0211    0.9775    0.2848 H        1 ZINC000002526465    0.1400
@<TRIPOS>BOND
1     1     2     2
2     2     16    1
3     2     3     am
4     3     4     am
5     3     26    1
6     4     5     2
7     4     6     1
8     6     7     1
9     6     16    2
10    7     12    ar
11    7     8     ar
12    8     9     ar
13    8     27    1
14    9     10    ar
15    9     28    1
16    10    11    ar
17    10    29    1
18    11    12    ar
19    11    30    1
20    12    13    1
21    13    14    2
22    13    15    2
23    16    17    1
24    17    18    1
25    17    31    1
26    18    25    ar
27    18    19    ar
28    19    20    ar
29    19    32    1
30    20    21    ar
31    20    33    1
32    21    22    1
33    21    23    ar
34    22    34    1
35    23    24    1
36    23    25    ar
37    25    35    1
@<TRIPOS>SUBSTRUCTURE
1   ZINC000002526465 1     RESIDUE    1   A     ZIN   1


@<TRIPOS>MOLECULE
C1COCCN1CC2=CN=C(C=C2)C3=C(NC4=C3C=C(C=C4)C#N)O
43    46    1     0     0
SMALL
USER_CHARGES
@<TRIPOS>ATOM
1      N1      0.0175   -1.1399   -0.0042 N.1      1 ZINC000038698888   -0.4100
2      C2      0.0021   -0.0041    0.0020 C.1      1 ZINC000038698888    0.2500
3      C3     -0.0173    1.4278    0.0099 C.ar     1 ZINC000038698888   -0.0500
4      C4     -1.2340    2.1152    0.0311 C.ar     1 ZINC000038698888   -0.0300
5      C5     -1.2520    3.4904    0.0391 C.ar     1 ZINC000038698888   -0.1400
6      C6     -0.0566    4.2113    0.0257 C.ar     1 ZINC000038698888    0.1800
7      N7      0.1742    5.5840    0.0289 N.am     1 ZINC000038698888   -0.6600
8      C8      1.4839    5.8821    0.0112 C.2      1 ZINC000038698888    0.5400
9      O9      1.9697    6.9934    0.0097 O.2      1 ZINC000038698888   -0.4800
10     C10     2.2399    4.5706   -0.0062 C.3      1 ZINC000038698888   -0.0300
11     C11     3.1078    4.4447    1.2193 C.ar     1 ZINC000038698888    0.1500
12     C12     2.6803    4.9851    2.4172 C.ar     1 ZINC000038698888   -0.1600
13     C13     3.4862    4.8634    3.5391 C.ar     1 ZINC000038698888   -0.0600
14     C14     4.6968    4.1999    3.4131 C.ar     1 ZINC000038698888   -0.1300
15     C15     5.6075    4.0413    4.6034 C.3      1 ZINC000038698888    0.1000
16     N16     5.2809    2.7937    5.3069 N.3      1 ZINC000038698888   -0.5300
17     C17     3.8288    2.6576    5.4916 C.3      1 ZINC000038698888    0.0100
18     C18     3.5297    1.3198    6.1733 C.3      1 ZINC000038698888    0.0600
19     O19     4.2417    1.2519    7.4118 O.3      1 ZINC000038698888   -0.3800
20     C20     5.6589    1.3804    7.2689 C.3      1 ZINC000038698888    0.0600
21     C21     5.9796    2.7188    6.5983 C.3      1 ZINC000038698888    0.0200
22     C22     5.0579    3.6853    2.1821 C.ar     1 ZINC000038698888    0.1300
23     N23     4.2639    3.8155    1.1375 N.ar     1 ZINC000038698888   -0.4700
24     C24     1.1521    3.5209    0.0047 C.ar     1 ZINC000038698888   -0.1400
25     C25     1.1816    2.1489    0.0023 C.ar     1 ZINC000038698888    0.0000
26     H26    -2.1631    1.5647    0.0408 H        1 ZINC000038698888    0.1500
27     H27    -2.1957    4.0153    0.0555 H        1 ZINC000038698888    0.1400
28     H28    -0.5310    6.2500    0.0425 H        1 ZINC000038698888    0.4200
29     H29     2.8432    4.4893   -0.9104 H        1 ZINC000038698888    0.1500
30     H30     1.7308    5.4959    2.4787 H        1 ZINC000038698888    0.1300
31     H31     3.1781    5.2761    4.4885 H        1 ZINC000038698888    0.1400
32     H32     6.6435    4.0078    4.2663 H        1 ZINC000038698888    0.0900
33     H33     5.4724    4.8857    5.2793 H        1 ZINC000038698888    0.0500
34     H34     3.4631    3.4736    6.1149 H        1 ZINC000038698888    0.0400
35     H35     3.3338    2.6902    4.5210 H        1 ZINC000038698888    0.0900
36     H36     2.4595    1.2397    6.3639 H        1 ZINC000038698888    0.1000
37     H37     3.8469    0.5024    5.5258 H        1 ZINC000038698888    0.0600
38     H38     6.1285    1.3440    8.2519 H        1 ZINC000038698888    0.1000
39     H39     6.0380    0.5647    6.6533 H        1 ZINC000038698888    0.0600
40     H40     7.0546    2.7960    6.4355 H        1 ZINC000038698888    0.0900
41     H41     5.6482    3.5357    7.2393 H        1 ZINC000038698888    0.0500
42     H42     5.9996    3.1674    2.0755 H        1 ZINC000038698888    0.1600
43     H43     2.1274    1.6275   -0.0085 H        1 ZINC000038698888    0.1400
@<TRIPOS>BOND
1     1     2     3
2     2     3     1
3     3     25    ar
4     3     4     ar
5     4     5     ar
6     4     26    1
7     5     6     ar
8     5     27    1
9     6     24    ar
10    6     7     1
11    7     8     am
12    7     28    1
13    8     9     2
14    8     10    1
15    10    11    1
16    10    24    1
17    10    29    1
18    11    23    ar
19    11    12    ar
20    12    13    ar
21    12    30    1
22    13    14    ar
23    13    31    1
24    14    15    1
25    14    22    ar
26    15    16    1
27    15    32    1
28    15    33    1
29    16    21    1
30    16    17    1
31    17    18    1
32    17    34    1
33    17    35    1
34    18    19    1
35    18    36    1
36    18    37    1
37    19    20    1
38    20    21    1
39    20    38    1
40    20    39    1
41    21    40    1
42    21    41    1
43    22    23    ar
44    22    42    1
45    24    25    ar
46    25    43    1
@<TRIPOS>SUBSTRUCTURE
1   ZINC000038698888 1     RESIDUE    1   A     ZIN   1


@<TRIPOS>MOLECULE
CN(C)CCN1C(=O)C2=CC=CC=C2C1=O
31    32    1     0     0
SMALL
USER_CHARGES
@<TRIPOS>ATOM
1      C1     -0.0178    1.4648    0.0101 C.3      1 ZINC000000090757   -0.0500
2      N2      0.0021   -0.0041    0.0020 N.4      1 ZINC000000090757   -0.3800
3      H3      0.4743   -0.3295   -0.8281 H        1 ZINC000000090757    0.4300
4      C4      0.7126   -0.4907    1.1921 C.3      1 ZINC000000090757   -0.0600
5      C5     -1.3761   -0.5125    0.0124 C.3      1 ZINC000000090757   -0.0300
6      C6     -1.3584   -2.0365   -0.1216 C.3      1 ZINC000000090757    0.0900
7      N7     -2.7328   -2.5436   -0.1112 N.am     1 ZINC000000090757   -0.5800
8      C8     -3.4049   -2.8982    0.9988 C.2      1 ZINC000000090757    0.5800
9      O9     -2.9750   -2.8495    2.1337 O.2      1 ZINC000000090757   -0.4500
10     C10    -4.7543   -3.3563    0.6064 C.ar     1 ZINC000000090757   -0.1500
11     C11    -5.8557   -3.8289    1.3010 C.ar     1 ZINC000000090757   -0.0400
12     C12    -7.0038   -4.1844    0.6096 C.ar     1 ZINC000000090757   -0.0900
13     C13    -7.0563   -4.0703   -0.7665 C.ar     1 ZINC000000090757   -0.0900
14     C14    -5.9617   -3.5988   -1.4751 C.ar     1 ZINC000000090757   -0.0400
15     C15    -4.8079   -3.2399   -0.7976 C.ar     1 ZINC000000090757   -0.1500
16     C16    -3.4909   -2.7104   -1.2100 C.2      1 ZINC000000090757    0.5800
17     O17    -3.1496   -2.4682   -2.3501 O.2      1 ZINC000000090757   -0.4500
18     H18     1.0047    1.8421    0.0024 H        1 ZINC000000090757    0.1300
19     H19    -0.5450    1.8259   -0.8730 H        1 ZINC000000090757    0.1300
20     H20    -0.5280    1.8163    0.9069 H        1 ZINC000000090757    0.1200
21     H21     0.2024   -0.1392    2.0889 H        1 ZINC000000090757    0.1300
22     H22     0.7274   -1.5806    1.1861 H        1 ZINC000000090757    0.1200
23     H23     1.7352   -0.1134    1.1844 H        1 ZINC000000090757    0.1300
24     H24    -1.8584   -0.2358    0.9500 H        1 ZINC000000090757    0.1400
25     H25    -1.9290   -0.0808   -0.8218 H        1 ZINC000000090757    0.1400
26     H26    -0.8762   -2.3132   -1.0592 H        1 ZINC000000090757    0.1200
27     H27    -0.8055   -2.4683    0.7126 H        1 ZINC000000090757    0.1200
28     H28    -5.8201   -3.9205    2.3766 H        1 ZINC000000090757    0.1500
29     H29    -7.8628   -4.5533    1.1503 H        1 ZINC000000090757    0.1500
30     H30    -7.9561   -4.3507   -1.2939 H        1 ZINC000000090757    0.1500
31     H31    -6.0085   -3.5115   -2.5505 H        1 ZINC000000090757    0.1500
@<TRIPOS>BOND
1     1     2     1
2     1     18    1
3     1     19    1
4     1     20    1
5     2     3     1
6     2     4     1
7     2     5     1
8     4     21    1
9     4     22    1
10    4     23    1
11    5     6     1
12    5     24    1
13    5     25    1
14    6     7     1
15    6     26    1
16    6     27    1
17    7     16    am
18    7     8     am
19    8     9     2
20    8     10    1
21    10    15    ar
22    10    11    ar
23    11    12    ar
24    11    28    1
25    12    13    ar
26    12    29    1
27    13    14    ar
28    13    30    1
29    14    15    ar
30    14    31    1
31    15    16    1
32    16    17    2
@<TRIPOS>SUBSTRUCTURE
1   ZINC000000090757 1     RESIDUE    1   A     ZIN   1


@<TRIPOS>MOLECULE
C1=CC=C2C=C(C=CC2=C1)C(=O)CC3(C4=CC=CC=C4N(C3=O)CC(=O)N)O
  46   49    0    0    0
SMALL
USER_CHARGES
NO_NAME
@<TRIPOS>ATOM
    1 N1       -0.0162     1.3436     0.0094 N.am   1 <0>      -0.8500
    2 C2        0.0021    -0.0041     0.0020 C.2    1 <0>       0.5000
    3 O3        1.0605    -0.5961    -0.0113 O.2    1 <0>      -0.5300
    4 C4       -1.2926    -0.7753     0.0102 C.3    1 <0>       0.0900
    5 N5       -1.0054    -2.2118    -0.0002 N.am   1 <0>      -0.5400
    6 C6       -0.8636    -2.9391    -1.1211 C.2    1 <0>       0.5100
    7 O7       -0.9485    -2.5311    -2.2602 O.2    1 <0>      -0.4500
    8 C8       -0.5775    -4.3634    -0.6951 C.3    1 <0>       0.1700
    9 O9       -1.6011    -5.2421    -1.1663 O.3    1 <0>      -0.5300
   10 C10       0.7915    -4.8123    -1.2103 C.3    1 <0>      -0.1800
   11 C11       0.8403    -4.6559    -2.7084 C.2    1 <0>       0.3800
   12 O12      -0.1246    -4.2277    -3.3052 O.2    1 <0>      -0.4100
   13 C13       2.0583    -5.0227    -3.4466 C.ar   1 <0>      -0.1600
   14 C14       3.1744    -5.5251    -2.7495 C.ar   1 <0>      -0.0800
   15 C15       4.3085    -5.8700    -3.4092 C.ar   1 <0>      -0.1100
   16 C16       4.3816    -5.7282    -4.8075 C.ar   1 <0>      -0.0300
   17 C17       5.5456    -6.0797    -5.5107 C.ar   1 <0>      -0.1100
   18 C18       5.5876    -5.9321    -6.8637 C.ar   1 <0>      -0.1000
   19 C19       4.4910    -5.4362    -7.5665 C.ar   1 <0>      -0.1200
   20 C20       3.3462    -5.0846    -6.9201 C.ar   1 <0>      -0.0900
   21 C21       3.2651    -5.2235    -5.5224 C.ar   1 <0>      -0.0700
   22 C22       2.0984    -4.8768    -4.8268 C.ar   1 <0>      -0.0300
   23 C23      -0.5846    -4.3037     0.8150 C.ar   1 <0>      -0.1400
   24 C24      -0.3912    -5.2552     1.7905 C.ar   1 <0>      -0.0400
   25 C25      -0.4584    -4.8980     3.1263 C.ar   1 <0>      -0.1400
   26 C26      -0.7196    -3.5859     3.4751 C.ar   1 <0>      -0.0700
   27 C27      -0.9143    -2.6301     2.4991 C.ar   1 <0>      -0.1400
   28 C28      -0.8419    -2.9806     1.1526 C.ar   1 <0>       0.1700
   29 H29       0.8172     1.8399     0.0041 H      1 <0>       0.4100
   30 H30      -0.8627     1.8171     0.0160 H      1 <0>       0.4000
   31 H31      -1.8592    -0.5245     0.9070 H      1 <0>       0.1200
   32 H32      -1.8762    -0.5150    -0.8728 H      1 <0>       0.1200
   33 H33      -1.6808    -5.2724    -2.1295 H      1 <0>       0.3900
   34 H34       1.5697    -4.1994    -0.7555 H      1 <0>       0.1200
   35 H35       0.9531    -5.8580    -0.9487 H      1 <0>       0.1200
   36 H36       3.1269    -5.6367    -1.6763 H      1 <0>       0.1300
   37 H37       5.1563    -6.2535    -2.8608 H      1 <0>       0.1300
   38 H38       6.4039    -6.4651    -4.9805 H      1 <0>       0.1300
   39 H39       6.4847    -6.2032    -7.4004 H      1 <0>       0.1300
   40 H40       4.5508    -5.3291    -8.6395 H      1 <0>       0.1300
   41 H41       2.5043    -4.7010    -7.4772 H      1 <0>       0.1300
   42 H42       1.2395    -4.4959    -5.3595 H      1 <0>       0.1400
   43 H43      -0.1877    -6.2792     1.5142 H      1 <0>       0.1300
   44 H44      -0.3074    -5.6425     3.8940 H      1 <0>       0.1300
   45 H45      -0.7719    -3.3075     4.5173 H      1 <0>       0.1300
   46 H46      -1.1186    -1.6074     2.7795 H      1 <0>       0.1300
@<TRIPOS>BOND
   1    1    2 am
   2    1   29 1
   3    1   30 1
   4    2    3 2
   5    2    4 1
   6    4    5 1
   7    4   31 1
   8    4   32 1
   9    5   28 1
  10    5    6 am
  11    6    7 2
  12    6    8 1
  13    8    9 1
  14    8   10 1
  15    8   23 1
  16    9   33 1
  17   10   11 1
  18   10   34 1
  19   10   35 1
  20   11   12 2
  21   11   13 1
  22   13   22 ar
  23   13   14 ar
  24   14   15 ar
  25   14   36 1
  26   15   16 ar
  27   15   37 1
  28   16   21 ar
  29   16   17 ar
  30   17   18 ar
  31   17   38 1
  32   18   19 ar
  33   18   39 1
  34   19   20 ar
  35   19   40 1
  36   20   21 ar
  37   20   41 1
  38   21   22 ar
  39   22   42 1
  40   23   28 ar
  41   23   24 ar
  42   24   25 ar
  43   24   43 1
  44   25   26 ar
  45   25   44 1
  46   26   27 ar
  47   26   45 1
  48   27   28 ar
  49   27   46 1


@<TRIPOS>MOLECULE
C1=CC=C2C(=C1)N=C3N2C(=O)C(=CC4=CC=C(O4)C5=CC=C(C=C5)N6C=NN=N6)S3
42    47    1     0     0
SMALL
USER_CHARGES
@<TRIPOS>ATOM
1      O1      0.0021   -0.0041    0.0020 O.2      1 ZINC000000680892   -0.4600
2      C2     -0.0144    1.2136    0.0087 C.2      1 ZINC000000680892    0.5700
3      C3     -1.2289    1.9314    0.0301 C.2      1 ZINC000000680892   -0.2600
4      C4     -2.4969    1.4239    0.0458 C.2      1 ZINC000000680892    0.1200
5      C5     -3.6055    2.2960    0.0665 C.2      1 ZINC000000680892   -0.0400
6      C6     -4.9360    1.9164    0.0893 C.2      1 ZINC000000680892   -0.1100
7      C7     -5.6912    3.0914    0.1042 C.2      1 ZINC000000680892   -0.1900
8      C8     -4.8014    4.1421    0.0901 C.2      1 ZINC000000680892    0.0800
9      C9     -5.1586    5.5730    0.0989 C.ar     1 ZINC000000680892   -0.0200
10     C10    -6.5015    5.9601    0.1292 C.ar     1 ZINC000000680892   -0.0600
11     C11    -6.8307    7.2977    0.1372 C.ar     1 ZINC000000680892   -0.1000
12     C12    -5.8297    8.2620    0.1152 C.ar     1 ZINC000000680892    0.1500
13     N13    -6.1690    9.6213    0.1234 N.pl3    1 ZINC000000680892   -0.3300
14     C14    -5.3266   10.6772    0.0995 C.2      1 ZINC000000680892    0.2300
15     N15    -6.0601   11.7593    0.1188 N.2      1 ZINC000000680892   -0.3300
16     N16    -7.3084   11.4597    0.1532 N.2      1 ZINC000000680892   -0.0300
17     N17    -7.4593   10.1791    0.1522 N.2      1 ZINC000000680892   -0.0700
18     C18    -4.4931    7.8815    0.0855 C.ar     1 ZINC000000680892   -0.1200
19     C19    -4.1550    6.5460    0.0826 C.ar     1 ZINC000000680892   -0.0700
20     O20    -3.5512    3.6445    0.0734 O.3      1 ZINC000000680892   -0.1500
21     S21    -0.7462    3.6372    0.0329 S.3      1 ZINC000000680892    0.1900
22     C22     0.9910    3.2877    0.0061 C.2      1 ZINC000000680892    0.2300
23     N23     2.1677    3.8663   -0.0075 N.2      1 ZINC000000680892   -0.4100
24     C24     3.1395    2.9193   -0.0267 C.ar     1 ZINC000000680892    0.0600
25     C25     4.5361    2.9749   -0.0458 C.ar     1 ZINC000000680892   -0.0600
26     C26     5.2647    1.8056   -0.0625 C.ar     1 ZINC000000680892   -0.1100
27     C27     4.6250    0.5758   -0.0605 C.ar     1 ZINC000000680892   -0.0900
28     C28     3.2452    0.5059   -0.0421 C.ar     1 ZINC000000680892   -0.1000
29     C29     2.5007    1.6722   -0.0247 C.ar     1 ZINC000000680892    0.0700
30     N30     1.1189    1.9258    0.0017 N.am     1 ZINC000000680892   -0.5000
31     H31    -2.6508    0.3549    0.0423 H        1 ZINC000000680892    0.1900
32     H32    -5.3173    0.9059    0.0942 H        1 ZINC000000680892    0.1700
33     H33    -6.7687    3.1623    0.1227 H        1 ZINC000000680892    0.1700
34     H34    -7.2798    5.2115    0.1460 H        1 ZINC000000680892    0.1500
35     H35    -7.8679    7.5976    0.1603 H        1 ZINC000000680892    0.1500
36     H36    -4.2478   10.6353    0.0706 H        1 ZINC000000680892    0.2400
37     H37    -3.7185    8.6339    0.0684 H        1 ZINC000000680892    0.1500
38     H38    -3.1163    6.2512    0.0595 H        1 ZINC000000680892    0.1500
39     H39     5.0413    3.9294   -0.0478 H        1 ZINC000000680892    0.1400
40     H40     6.3438    1.8476   -0.0776 H        1 ZINC000000680892    0.1400
41     H41     5.2085   -0.3329   -0.0737 H        1 ZINC000000680892    0.1400
42     H42     2.7503   -0.4540   -0.0413 H        1 ZINC000000680892    0.1400
@<TRIPOS>BOND
1     1     2     2
2     2     30    am
3     2     3     1
4     3     4     2
5     3     21    1
6     4     5     1
7     4     31    1
8     5     20    1
9     5     6     2
10    6     7     1
11    6     32    1
12    7     8     2
13    7     33    1
14    8     9     1
15    8     20    1
16    9     19    ar
17    9     10    ar
18    10    11    ar
19    10    34    1
20    11    12    ar
21    11    35    1
22    12    13    1
23    12    18    ar
24    13    17    1
25    13    14    1
26    14    15    2
27    14    36    1
28    15    16    1
29    16    17    2
30    18    19    ar
31    18    37    1
32    19    38    1
33    21    22    1
34    22    30    1
35    22    23    2
36    23    24    1
37    24    29    ar
38    24    25    ar
39    25    26    ar
40    25    39    1
41    26    27    ar
42    26    40    1
43    27    28    ar
44    27    41    1
45    28    29    ar
46    28    42    1
47    29    30    1
@<TRIPOS>SUBSTRUCTURE
1   ZINC000000680892 1     RESIDUE    1   A     ZIN   1


@<TRIPOS>MOLECULE
CN1C(=O)COC2=C1C=C(C=C2)C3=NN(C(=O)C4=CC=CC=C43)CC5=CC=CC=C5
  49   53    0    0    0
SMALL
USER_CHARGES
NO_NAME
@<TRIPOS>ATOM
    1 C1       -2.1775    -4.4849     2.4768 C.3    1 <0>       0.0700
    2 N2       -1.0292    -3.9459     1.7439 N.am   1 <0>      -0.5500
    3 C3       -0.4666    -4.6494     0.7373 C.2    1 <0>       0.4900
    4 O4       -0.9286    -5.7227     0.4121 O.2    1 <0>      -0.5000
    5 C5        0.7375    -4.0950     0.0195 C.3    1 <0>       0.0500
    6 O6        0.6732    -2.6667     0.0052 O.3    1 <0>      -0.3000
    7 C7        0.3649    -2.0568     1.1810 C.ar   1 <0>       0.0900
    8 C8        0.8993    -0.8173     1.4917 C.ar   1 <0>      -0.1000
    9 C9        0.5801    -0.2070     2.6882 C.ar   1 <0>      -0.0700
   10 C10      -0.2802    -0.8366     3.5873 C.ar   1 <0>      -0.0300
   11 C11      -0.6215    -0.1802     4.8706 C.2    1 <0>       0.1800
   12 N12      -0.8548     1.1070     4.9074 N.2    1 <0>      -0.2200
   13 N13      -1.1802     1.7769     6.0871 N.am   1 <0>      -0.4200
   14 C14      -1.4265     3.2203     6.0413 C.3    1 <0>       0.1700
   15 C15      -0.1322     3.9582     6.2680 C.ar   1 <0>      -0.1200
   16 C16       0.2566     4.2936     7.5514 C.ar   1 <0>      -0.0900
   17 C17       1.4439     4.9705     7.7593 C.ar   1 <0>      -0.1300
   18 C18       2.2425     5.3115     6.6837 C.ar   1 <0>      -0.1100
   19 C19       1.8542     4.9753     5.4004 C.ar   1 <0>      -0.1300
   20 C20       0.6690     4.2947     5.1929 C.ar   1 <0>      -0.0900
   21 C21      -1.2748     1.1331     7.2685 C.2    1 <0>       0.5300
   22 O22      -1.5614     1.7421     8.2837 O.2    1 <0>      -0.5100
   23 C23      -1.0273    -0.3141     7.3115 C.ar   1 <0>      -0.1200
   24 C24      -1.1085    -1.0403     8.4985 C.ar   1 <0>      -0.0500
   25 C25      -0.8666    -2.3967     8.4828 C.ar   1 <0>      -0.1100
   26 C26      -0.5432    -3.0447     7.2983 C.ar   1 <0>      -0.0900
   27 C27      -0.4578    -2.3458     6.1140 C.ar   1 <0>      -0.1100
   28 C28      -0.7048    -0.9742     6.1051 C.ar   1 <0>      -0.0500
   29 C29      -0.8197    -2.0855     3.2762 C.ar   1 <0>      -0.1100
   30 C30      -0.5009    -2.6890     2.0729 C.ar   1 <0>       0.1000
   31 H31      -3.0999    -4.1746     1.9861 H      1 <0>       0.0700
   32 H32      -2.1215    -5.5734     2.4903 H      1 <0>       0.0900
   33 H33      -2.1653    -4.1079     3.4995 H      1 <0>       0.0800
   34 H34       1.6446    -4.4123     0.5340 H      1 <0>       0.1000
   35 H35       0.7527    -4.4677    -1.0047 H      1 <0>       0.1500
   36 H36       1.5665    -0.3279     0.7976 H      1 <0>       0.1500
   37 H37       0.9977     0.7595     2.9286 H      1 <0>       0.1400
   38 H38      -1.8319     3.4890     5.0659 H      1 <0>       0.1000
   39 H39      -2.1405     3.4919     6.8189 H      1 <0>       0.1100
   40 H40      -0.3673     4.0272     8.3917 H      1 <0>       0.1300
   41 H41       1.7473     5.2331     8.7619 H      1 <0>       0.1200
   42 H42       3.1697     5.8409     6.8461 H      1 <0>       0.1200
   43 H43       2.4780     5.2420     4.5601 H      1 <0>       0.1200
   44 H44       0.3656     4.0320     4.1902 H      1 <0>       0.1300
   45 H45      -1.3588    -0.5432     9.4240 H      1 <0>       0.1400
   46 H46      -0.9289    -2.9613     9.4013 H      1 <0>       0.1400
   47 H47      -0.3562    -4.1084     7.3054 H      1 <0>       0.1400
   48 H48      -0.2052    -2.8583     5.1975 H      1 <0>       0.1400
   49 H49      -1.4862    -2.5764     3.9699 H      1 <0>       0.1400
@<TRIPOS>BOND
   1    1    2 1
   2    1   31 1
   3    1   32 1
   4    1   33 1
   5    2   30 1
   6    2    3 am
   7    3    4 2
   8    3    5 1
   9    5    6 1
  10    5   34 1
  11    5   35 1
  12    6    7 1
  13    7   30 ar
  14    7    8 ar
  15    8    9 ar
  16    8   36 1
  17    9   10 ar
  18    9   37 1
  19   10   11 1
  20   10   29 ar
  21   11   28 1
  22   11   12 2
  23   12   13 1
  24   13   14 1
  25   13   21 am
  26   14   15 1
  27   14   38 1
  28   14   39 1
  29   15   20 ar
  30   15   16 ar
  31   16   17 ar
  32   16   40 1
  33   17   18 ar
  34   17   41 1
  35   18   19 ar
  36   18   42 1
  37   19   20 ar
  38   19   43 1
  39   20   44 1
  40   21   22 2
  41   21   23 1
  42   23   28 ar
  43   23   24 ar
  44   24   25 ar
  45   24   45 1
  46   25   26 ar
  47   25   46 1
  48   26   27 ar
  49   26   47 1
  50   27   28 ar
  51   27   48 1
  52   29   30 ar
  53   29   49 1


@<TRIPOS>MOLECULE
COC1=CC=C(C=C1)OCC(=O)NC2=CC=CC(=C2)C3=NC4=CC=CC=C4C(=O)O3
48    51    1     0     0
SMALL
USER_CHARGES
@<TRIPOS>ATOM
1      C1      2.9267   -6.5994   -2.3060 C.3      1 ZINC000000692350    0.0300
2      O2      2.0828   -5.6752   -1.6163 O.3      1 ZINC000000692350   -0.3200
3      C3      0.7643   -5.9943   -1.5229 C.ar     1 ZINC000000692350    0.0900
4      C4      0.2955   -7.1753   -2.0790 C.ar     1 ZINC000000692350   -0.1700
5      C5     -1.0439   -7.4994   -1.9841 C.ar     1 ZINC000000692350   -0.1000
6      C6     -1.9199   -6.6441   -1.3323 C.ar     1 ZINC000000692350    0.0900
7      O7     -3.2385   -6.9630   -1.2393 O.3      1 ZINC000000692350   -0.2900
8      C8     -4.0834   -6.0362   -0.5543 C.3      1 ZINC000000692350    0.0400
9      C9     -5.4987   -6.5538   -0.5515 C.2      1 ZINC000000692350    0.5100
10     O10    -5.7583   -7.6123   -1.0837 O.2      1 ZINC000000692350   -0.4900
11     N11    -6.4759   -5.8406    0.0425 N.am     1 ZINC000000692350   -0.6700
12     C12    -7.8048   -6.2721   -0.0380 C.ar     1 ZINC000000692350    0.1400
13     C13    -8.8329   -5.3417   -0.1300 C.ar     1 ZINC000000692350   -0.1100
14     C14   -10.1475   -5.7625   -0.2102 C.ar     1 ZINC000000692350   -0.1100
15     C15   -10.4477   -7.1090   -0.1991 C.ar     1 ZINC000000692350   -0.0600
16     C16    -9.4217   -8.0524   -0.1069 C.ar     1 ZINC000000692350   -0.0500
17     C17    -9.7399   -9.4948   -0.0953 C.2      1 ZINC000000692350    0.4100
18     N18   -10.9949   -9.8591   -0.1781 N.2      1 ZINC000000692350   -0.5100
19     C19   -11.3443  -11.1684   -0.1431 C.ar     1 ZINC000000692350    0.1500
20     C20   -12.6257  -11.6126   -0.4657 C.ar     1 ZINC000000692350   -0.1000
21     C21   -12.9142  -12.9589   -0.4013 C.ar     1 ZINC000000692350   -0.0700
22     C22   -11.9471  -13.8787   -0.0193 C.ar     1 ZINC000000692350   -0.1300
23     C23   -10.6707  -13.4638    0.3024 C.ar     1 ZINC000000692350   -0.0300
24     C24   -10.3594  -12.1119    0.2399 C.ar     1 ZINC000000692350   -0.2300
25     C25    -9.0205  -11.5826    0.5544 C.2      1 ZINC000000692350    0.5300
26     O26    -8.2341  -12.1829    1.2618 O.2      1 ZINC000000692350   -0.4200
27     O27    -8.7249  -10.3773   -0.0053 O.3      1 ZINC000000692350   -0.3100
28     C28    -8.0949   -7.6275   -0.0318 C.ar     1 ZINC000000692350   -0.0700
29     C29    -1.4509   -5.4638   -0.7750 C.ar     1 ZINC000000692350   -0.1700
30     C30    -0.1108   -5.1416   -0.8665 C.ar     1 ZINC000000692350   -0.1100
31     H31     3.9504   -6.2251   -2.3079 H        1 ZINC000000692350    0.1000
32     H32     2.8942   -7.5661   -1.8034 H        1 ZINC000000692350    0.0600
33     H33     2.5792   -6.7121   -3.3330 H        1 ZINC000000692350    0.0600
34     H34     0.9776   -7.8413   -2.5865 H        1 ZINC000000692350    0.1400
35     H35    -1.4091   -8.4186   -2.4178 H        1 ZINC000000692350    0.1400
36     H36    -3.7372   -5.9194    0.4726 H        1 ZINC000000692350    0.1000
37     H37    -4.0503   -5.0715   -1.0608 H        1 ZINC000000692350    0.1000
38     H38    -6.2582   -5.0282    0.5258 H        1 ZINC000000692350    0.4200
39     H39    -8.6043   -4.2862   -0.1384 H        1 ZINC000000692350    0.1400
40     H40   -10.9422   -5.0346   -0.2815 H        1 ZINC000000692350    0.1400
41     H41   -11.4759   -7.4337   -0.2612 H        1 ZINC000000692350    0.1500
42     H42   -13.3870  -10.9068   -0.7636 H        1 ZINC000000692350    0.1500
43     H43   -13.9069  -13.3030   -0.6513 H        1 ZINC000000692350    0.1400
44     H44   -12.1960  -14.9286    0.0270 H        1 ZINC000000692350    0.1400
45     H45    -9.9219  -14.1830    0.5995 H        1 ZINC000000692350    0.1400
46     H46    -7.2972   -8.3521    0.0396 H        1 ZINC000000692350    0.1500
47     H47    -2.1329   -4.7980   -0.2672 H        1 ZINC000000692350    0.1400
48     H48     0.2545   -4.2225   -0.4326 H        1 ZINC000000692350    0.1400
@<TRIPOS>BOND
1     1     2     1
2     1     31    1
3     1     32    1
4     1     33    1
5     2     3     1
6     3     30    ar
7     3     4     ar
8     4     5     ar
9     4     34    1
10    5     6     ar
11    5     35    1
12    6     7     1
13    6     29    ar
14    7     8     1
15    8     9     1
16    8     36    1
17    8     37    1
18    9     10    2
19    9     11    am
20    11    12    1
21    11    38    1
22    12    28    ar
23    12    13    ar
24    13    14    ar
25    13    39    1
26    14    15    ar
27    14    40    1
28    15    16    ar
29    15    41    1
30    16    17    1
31    16    28    ar
32    17    27    1
33    17    18    2
34    18    19    1
35    19    24    ar
36    19    20    ar
37    20    21    ar
38    20    42    1
39    21    22    ar
40    21    43    1
41    22    23    ar
42    22    44    1
43    23    24    ar
44    23    45    1
45    24    25    1
46    25    26    2
47    25    27    1
48    28    46    1
49    29    30    ar
50    29    47    1
51    30    48    1
@<TRIPOS>SUBSTRUCTURE
1   ZINC000000692350 1     RESIDUE    1   A     ZIN   1


@<TRIPOS>MOLECULE
COCCNC(=O)C1=CC2=C(C=C1)OC(=CC3=CC(=CC=C3)Cl)C(=O)N2
  43   45    0    0    0
SMALL
USER_CHARGES
NO_NAME
@<TRIPOS>ATOM
    1 C1        2.0177     1.0733     2.0953 C.3    1 <0>       0.0300
    2 O2        1.8355    -0.3266     1.8741 O.3    1 <0>      -0.3900
    3 C3        2.5653    -1.1579     2.7788 C.3    1 <0>       0.0500
    4 C4        2.2965    -2.6279     2.4507 C.3    1 <0>       0.1200
    5 N5        2.8314    -2.9375     1.1224 N.am   1 <0>      -0.7200
    6 C6        2.7092    -4.1821     0.6201 C.2    1 <0>       0.5600
    7 O7        2.1550    -5.0480     1.2693 O.2    1 <0>      -0.5300
    8 C8        3.2482    -4.4941    -0.7182 C.ar   1 <0>      -0.1200
    9 C9        3.8902    -3.5014    -1.4625 C.ar   1 <0>      -0.0700
   10 C10       4.3929    -3.7924    -2.7125 C.ar   1 <0>      -0.1100
   11 C11       4.2631    -5.0713    -3.2350 C.ar   1 <0>       0.0900
   12 O12       4.7578    -5.3551    -4.4707 O.3    1 <0>      -0.2200
   13 C13       5.1027    -6.6599    -4.6935 C.2    1 <0>      -0.0100
   14 C14       6.2009    -6.9866    -5.4101 C.2    1 <0>      -0.0300
   15 C15       6.9577    -5.9398    -6.1150 C.ar   1 <0>      -0.0600
   16 C16       6.4600    -4.6345    -6.1779 C.ar   1 <0>      -0.0900
   17 C17       7.1746    -3.6585    -6.8403 C.ar   1 <0>      -0.1100
   18 C18       8.3814    -3.9676    -7.4423 C.ar   1 <0>      -0.1000
   19 C19       8.8818    -5.2582    -7.3847 C.ar   1 <0>      -0.0400
   20 Cl20     10.3970    -5.6343    -8.1439 Cl     1 <0>      -0.0600
   21 C21       8.1812    -6.2440    -6.7204 C.ar   1 <0>      -0.0900
   22 C22       4.2214    -7.6972    -4.1165 C.2    1 <0>       0.5500
   23 O23       4.1527    -8.8099    -4.6040 O.2    1 <0>      -0.4900
   24 N24       3.4936    -7.3620    -3.0241 N.am   1 <0>      -0.6600
   25 C25       3.6234    -6.0700    -2.4966 C.ar   1 <0>       0.1000
   26 C26       3.1220    -5.7843    -1.2399 C.ar   1 <0>      -0.0600
   27 H27       3.0724     1.3246     1.9834 H      1 <0>       0.0400
   28 H28       1.4311     1.6354     1.3686 H      1 <0>       0.0900
   29 H29       1.6885     1.3279     3.1028 H      1 <0>       0.0400
   30 H30       3.6314    -0.9529     2.6810 H      1 <0>       0.0600
   31 H31       2.2475    -0.9496     3.8005 H      1 <0>       0.0700
   32 H32       2.7812    -3.2606     3.1941 H      1 <0>       0.0900
   33 H33       1.2222    -2.8120     2.4617 H      1 <0>       0.0800
   34 H34       3.2735    -2.2467     0.6045 H      1 <0>       0.4000
   35 H35       3.9924    -2.5051    -1.0583 H      1 <0>       0.1400
   36 H36       4.8884    -3.0234    -3.2866 H      1 <0>       0.1500
   37 H37       6.5231    -8.0159    -5.4655 H      1 <0>       0.1600
   38 H38       5.5178    -4.3914    -5.7092 H      1 <0>       0.1600
   39 H39       6.7910    -2.6501    -6.8894 H      1 <0>       0.1400
   40 H40       8.9359    -3.1990    -7.9601 H      1 <0>       0.1400
   41 H41       8.5720    -7.2499    -6.6760 H      1 <0>       0.1400
   42 H42       2.8934    -8.0046    -2.6144 H      1 <0>       0.4200
   43 H43       2.6304    -6.5551    -0.6650 H      1 <0>       0.1500
@<TRIPOS>BOND
   1    1    2 1
   2    1   27 1
   3    1   28 1
   4    1   29 1
   5    2    3 1
   6    3    4 1
   7    3   30 1
   8    3   31 1
   9    4    5 1
  10    4   32 1
  11    4   33 1
  12    5    6 am
  13    5   34 1
  14    6    7 2
  15    6    8 1
  16    8   26 ar
  17    8    9 ar
  18    9   10 ar
  19    9   35 1
  20   10   11 ar
  21   10   36 1
  22   11   25 ar
  23   11   12 1
  24   12   13 1
  25   13   14 2
  26   13   22 1
  27   14   15 1
  28   14   37 1
  29   15   21 ar
  30   15   16 ar
  31   16   17 ar
  32   16   38 1
  33   17   18 ar
  34   17   39 1
  35   18   19 ar
  36   18   40 1
  37   19   20 1
  38   19   21 ar
  39   21   41 1
  40   22   23 2
  41   22   24 am
  42   24   25 1
  43   24   42 1
  44   25   26 ar
  45   26   43 1


@<TRIPOS>MOLECULE
CC1=CC2=CC(=CC(=C2C3=C1C(=CC(=O)O3)O)O)O
  28   30    0    0    0
SMALL
USER_CHARGES
NO_NAME
@<TRIPOS>ATOM
    1 C1       -0.0184     1.5028     0.0103 C.3    1 <0>      -0.1200
    2 C2        0.0021    -0.0041     0.0020 C.ar   1 <0>       0.0200
    3 C3       -0.1009    -0.6952    -1.2202 C.ar   1 <0>      -0.1900
    4 C4       -0.2279     0.0369    -2.4871 C.2    1 <0>       0.3400
    5 O5       -0.2487     1.3895    -2.5100 O.3    1 <0>      -0.6600
    6 C6       -0.3241    -0.6887    -3.6449 C.2    1 <0>      -0.5000
    7 C7       -0.2992    -2.0883    -3.5896 C.2    1 <0>       0.5000
    8 O8       -0.3851    -2.7257    -4.6253 O.2    1 <0>      -0.5500
    9 O9       -0.1826    -2.7451    -2.4245 O.3    1 <0>      -0.2800
   10 C10      -0.0837    -2.0925    -1.2495 C.ar   1 <0>       0.1800
   11 C11       0.0384    -2.8035    -0.0399 C.ar   1 <0>      -0.1100
   12 C12       0.0604    -4.2122    -0.0264 C.ar   1 <0>       0.1700
   13 O13      -0.0367    -4.9069    -1.1886 O.3    1 <0>      -0.4800
   14 C14       0.1812    -4.8808     1.1708 C.ar   1 <0>      -0.2000
   15 C15       0.2821    -4.1760     2.3712 C.ar   1 <0>       0.1300
   16 O16       0.4010    -4.8561     3.5409 O.3    1 <0>      -0.5000
   17 C17       0.2629    -2.7978     2.3836 C.ar   1 <0>      -0.1600
   18 C18       0.1409    -2.0899     1.1792 C.ar   1 <0>       0.0200
   19 C19       0.1250    -0.6791     1.1704 C.ar   1 <0>      -0.1800
   20 H20       0.9793     1.8809    -0.2128 H      1 <0>       0.0700
   21 H21      -0.7196     1.8608    -0.7435 H      1 <0>       0.1100
   22 H22      -0.3296     1.8565     0.9932 H      1 <0>       0.0500
   23 H23      -0.4190    -0.1845    -4.5952 H      1 <0>       0.1300
   24 H24       0.8148    -5.0953    -1.6066 H      1 <0>       0.3900
   25 H25       0.1978    -5.9606     1.1813 H      1 <0>       0.1300
   26 H26       1.3149    -5.0398     3.7980 H      1 <0>       0.3900
   27 H27       0.3414    -2.2641     3.3193 H      1 <0>       0.1400
   28 H28       0.2071    -0.1348     2.0995 H      1 <0>       0.1300
@<TRIPOS>BOND
   1    1    2 1
   2    1   20 1
   3    1   21 1
   4    1   22 1
   5    2   19 ar
   6    2    3 ar
   7    3   10 ar
   8    3    4 1
   9    4    5 1
  10    4    6 2
  11    6    7 1
  12    6   23 1
  13    7    8 2
  14    7    9 1
  15    9   10 1
  16   10   11 ar
  17   11   18 ar
  18   11   12 ar
  19   12   13 1
  20   12   14 ar
  21   13   24 1
  22   14   15 ar
  23   14   25 1
  24   15   16 1
  25   15   17 ar
  26   16   26 1
  27   17   18 ar
  28   17   27 1
  29   18   19 ar
  30   19   28 1


@<TRIPOS>MOLECULE
CC1=CC(=CC2=C1C3=C(C(=CC(=C3)O)O)C(=O)O2)O
29    31    1     0     0
SMALL
USER_CHARGES
@<TRIPOS>ATOM
1      C1     -0.0184    1.5028    0.0103 C.3      1 ZINC000000402623   -0.1400
2      C2      0.0021   -0.0041    0.0020 C.ar     1 ZINC000000402623    0.0000
3      C3     -0.1285   -0.6326   -1.2241 C.ar     1 ZINC000000402623   -0.1700
4      C4     -0.0808   -2.0164   -1.3162 C.ar     1 ZINC000000402623    0.1700
5      O5     -0.2364   -2.6251   -2.5200 O.3      1 ZINC000000402623   -0.4900
6      C6      0.1383   -2.7742   -0.1806 C.ar     1 ZINC000000402623   -0.1700
7      C7      0.2685   -2.1579    1.0565 C.ar     1 ZINC000000402623    0.1600
8      C8      0.1252   -0.7601    1.1613 C.ar     1 ZINC000000402623   -0.1300
9      C9      0.0730   -0.1913    2.5207 C.ar     1 ZINC000000402623    0.0500
10     C10    -0.5649    0.9833    2.8706 C.ar     1 ZINC000000402623   -0.1600
11     C11    -0.4051    1.5149    4.1455 C.ar     1 ZINC000000402623    0.1800
12     O12    -1.0213    2.6805    4.4678 O.3      1 ZINC000000402623   -0.4900
13     C13     0.3684    0.8599    5.0949 C.ar     1 ZINC000000402623   -0.1900
14     C14     0.9271   -0.3731    4.7997 C.ar     1 ZINC000000402623    0.2200
15     O15     1.7112   -1.0002    5.7113 O.3      1 ZINC000000402623   -0.4700
16     C16     0.6609   -0.9606    3.5607 C.ar     1 ZINC000000402623   -0.2300
17     C17     0.8943   -2.3864    3.3116 C.2      1 ZINC000000402623    0.5300
18     O18     1.3811   -3.0922    4.1856 O.2      1 ZINC000000402623   -0.4400
19     O19     0.5651   -2.9226    2.1263 O.3      1 ZINC000000402623   -0.2700
20     H20     1.0042    1.8800    0.0207 H        1 ZINC000000402623    0.0800
21     H21    -0.5298    1.8642   -0.8818 H        1 ZINC000000402623    0.0800
22     H22    -0.5443    1.8542    0.8980 H        1 ZINC000000402623    0.0800
23     H23    -0.2673   -0.0346   -2.1131 H        1 ZINC000000402623    0.1400
24     H24     0.5911   -2.7625   -3.0012 H        1 ZINC000000402623    0.4000
25     H25     0.2076   -3.8501   -0.2528 H        1 ZINC000000402623    0.1500
26     H26    -1.2422    1.4781    2.1900 H        1 ZINC000000402623    0.1500
27     H27    -1.9076    2.5676    4.8378 H        1 ZINC000000402623    0.4000
28     H28     0.5347    1.3100    6.0611 H        1 ZINC000000402623    0.1500
29     H29     1.2272   -1.5847    6.3107 H        1 ZINC000000402623    0.4000
@<TRIPOS>BOND
1     1     2     1
2     1     20    1
3     1     21    1
4     1     22    1
5     2     8     ar
6     2     3     ar
7     3     4     ar
8     3     23    1
9     4     5     1
10    4     6     ar
11    5     24    1
12    6     7     ar
13    6     25    1
14    7     19    1
15    7     8     ar
16    8     9     1
17    9     16    ar
18    9     10    ar
19    10    11    ar
20    10    26    1
21    11    12    1
22    11    13    ar
23    12    27    1
24    13    14    ar
25    13    28    1
26    14    15    1
27    14    16    ar
28    15    29    1
29    16    17    1
30    17    18    2
31    17    19    1
@<TRIPOS>SUBSTRUCTURE
1   ZINC000000402623 1     RESIDUE    1   A     ZIN   1


@<TRIPOS>MOLECULE
CC1=CC(=CC2=C1C3=C(C(=CC(=C3)OC)O)C(=O)O2)O
32    34    1     0     0
SMALL
USER_CHARGES
@<TRIPOS>ATOM
1      C1     -0.0173    1.4248    0.0099 C.3      1 ZINC000005765088    0.0200
2      O2      0.0021   -0.0041    0.0020 O.3      1 ZINC000005765088   -0.3000
3      C3      0.6251   -0.6177    1.0403 C.ar     1 ZINC000005765088    0.1900
4      C4      1.2067    0.1477    2.0426 C.ar     1 ZINC000005765088   -0.2500
5      C5      1.8058   -0.4707    3.1290 C.ar     1 ZINC000005765088    0.2300
6      O6      2.3783    0.2765    4.1063 O.3      1 ZINC000005765088   -0.4800
7      C7      1.8086   -1.8617    3.2021 C.ar     1 ZINC000005765088   -0.2500
8      C8      2.2493   -2.6004    4.3936 C.2      1 ZINC000005765088    0.5400
9      O9      3.1037   -2.1792    5.1402 O.2      1 ZINC000005765088   -0.4100
10     O10     1.6380   -3.7961    4.6053 O.3      1 ZINC000005765088   -0.2900
11     C11     1.6110   -4.6324    3.5334 C.ar     1 ZINC000005765088    0.1500
12     C12     1.6422   -6.0006    3.7336 C.ar     1 ZINC000005765088   -0.1700
13     C13     1.6453   -6.8585    2.6464 C.ar     1 ZINC000005765088    0.1600
14     O14     1.6620   -8.2018    2.8424 O.3      1 ZINC000005765088   -0.4900
15     C15     1.6382   -6.3420    1.3587 C.ar     1 ZINC000005765088   -0.1700
16     C16     1.5933   -4.9752    1.1472 C.ar     1 ZINC000005765088   -0.0100
17     C17     1.6468   -4.4907   -0.2802 C.3      1 ZINC000005765088   -0.1300
18     C18     1.5332   -4.1047    2.2243 C.ar     1 ZINC000005765088   -0.1300
19     C19     1.3373   -2.6466    2.1131 C.ar     1 ZINC000005765088    0.0700
20     C20     0.6745   -2.0074    1.0843 C.ar     1 ZINC000005765088   -0.1600
21     H21     1.0053    1.8021    0.0021 H        1 ZINC000005765088    0.0600
22     H22    -0.5445    1.7859   -0.8732 H        1 ZINC000005765088    0.1100
23     H23    -0.5275    1.7763    0.9067 H        1 ZINC000005765088    0.0600
24     H24     1.1931    1.2245    1.9766 H        1 ZINC000005765088    0.1500
25     H25     1.7757    0.5129    4.8247 H        1 ZINC000005765088    0.4000
26     H26     1.6633   -6.4017    4.7367 H        1 ZINC000005765088    0.1500
27     H27     0.7835   -8.6011    2.9046 H        1 ZINC000005765088    0.4000
28     H28     1.6680   -7.0082    0.5083 H        1 ZINC000005765088    0.1400
29     H29     0.6342   -4.4159   -0.6767 H        1 ZINC000005765088    0.0800
30     H30     2.1234   -3.5110   -0.3137 H        1 ZINC000005765088    0.0800
31     H31     2.2214   -5.1951   -0.8817 H        1 ZINC000005765088    0.0800
32     H32     0.1423   -2.5643    0.3272 H        1 ZINC000005765088    0.1500
@<TRIPOS>BOND
1     1     2     1
2     1     21    1
3     1     22    1
4     1     23    1
5     2     3     1
6     3     20    ar
7     3     4     ar
8     4     5     ar
9     4     24    1
10    5     6     1
11    5     7     ar
12    6     25    1
13    7     19    ar
14    7     8     1
15    8     9     2
16    8     10    1
17    10    11    1
18    11    18    ar
19    11    12    ar
20    12    13    ar
21    12    26    1
22    13    14    1
23    13    15    ar
24    14    27    1
25    15    16    ar
26    15    28    1
27    16    17    1
28    16    18    ar
29    17    29    1
30    17    30    1
31    17    31    1
32    18    19    1
33    19    20    ar
34    20    32    1
@<TRIPOS>SUBSTRUCTURE
1   ZINC000005765088 1     RESIDUE    1   A     ZIN   1


@<TRIPOS>MOLECULE
CN1C=C(C2=C1C=CC(=C2)I)C3=C(C(=O)NC3=O)C4=COC5=CC=CC=C54
40    44    1     0     0
SMALL
USER_CHARGES
@<TRIPOS>ATOM
1      C1     -0.0178    1.4608    0.0101 C.3      1 ZINC000040422789    0.0700
2      N2      0.0021   -0.0041    0.0020 N.pl3    1 ZINC000040422789   -0.4700
3      C3      0.0078   -0.7750   -1.1187 C.2      1 ZINC000040422789    0.1100
4      C4      0.0272   -2.0938   -0.7692 C.2      1 ZINC000040422789   -0.1400
5      C5      0.0395   -3.2470   -1.6837 C.2      1 ZINC000040422789   -0.0200
6      C6      1.1168   -3.7114   -2.4283 C.2      1 ZINC000040422789   -0.0400
7      C7      2.4787   -3.1493   -2.4613 C.2      1 ZINC000040422789   -0.1400
8      C8      3.4400   -3.2696   -1.5059 C.2      1 ZINC000040422789    0.0600
9      O9      4.5492   -2.6215   -1.8930 O.3      1 ZINC000040422789   -0.1800
10     C10     4.3841   -2.0482   -3.1030 C.ar     1 ZINC000040422789    0.0500
11     C11     5.2163   -1.2872   -3.9143 C.ar     1 ZINC000040422789   -0.1000
12     C12     4.7595   -0.8273   -5.1314 C.ar     1 ZINC000040422789   -0.0900
13     C13     3.4723   -1.1160   -5.5583 C.ar     1 ZINC000040422789   -0.1300
14     C14     2.6315   -1.8694   -4.7669 C.ar     1 ZINC000040422789   -0.0700
15     C15     3.0841   -2.3448   -3.5403 C.ar     1 ZINC000040422789   -0.1000
16     C16     0.6216   -4.8828   -3.1792 C.2      1 ZINC000040422789    0.5600
17     O17     1.2763   -5.5621   -3.9446 O.2      1 ZINC000040422789   -0.4400
18     N18    -0.6734   -5.0726   -2.8748 N.am     1 ZINC000040422789   -0.6900
19     C19    -1.0906   -4.1499   -1.9914 C.2      1 ZINC000040422789    0.5600
20     O20    -2.2111   -4.0659   -1.5299 O.2      1 ZINC000040422789   -0.4400
21     C21     0.0340   -2.1369    0.7039 C.ar     1 ZINC000040422789   -0.0700
22     C22     0.0516   -3.1677    1.6404 C.ar     1 ZINC000040422789   -0.0300
23     C23     0.0528   -2.8674    2.9858 C.ar     1 ZINC000040422789   -0.1200
24     I24     0.0792   -4.4133    4.3994 I        1 ZINC000040422789   -0.0400
25     C25     0.0371   -1.5456    3.4080 C.ar     1 ZINC000040422789   -0.0700
26     C26     0.0192   -0.5160    2.4919 C.ar     1 ZINC000040422789   -0.1100
27     C27     0.0236   -0.7983    1.1301 C.ar     1 ZINC000040422789    0.1100
28     H28     1.0048    1.8381    0.0023 H        1 ZINC000040422789    0.0800
29     H29    -0.5450    1.8219   -0.8730 H        1 ZINC000040422789    0.0900
30     H30    -0.5280    1.8123    0.9069 H        1 ZINC000040422789    0.0900
31     H31    -0.0015   -0.4001   -2.1316 H        1 ZINC000040422789    0.1800
32     H32     3.3271   -3.8061   -0.5754 H        1 ZINC000040422789    0.2100
33     H33     6.2206   -1.0555   -3.5917 H        1 ZINC000040422789    0.1300
34     H34     5.4106   -0.2361   -5.7581 H        1 ZINC000040422789    0.1400
35     H35     3.1271   -0.7492   -6.5137 H        1 ZINC000040422789    0.1300
36     H36     1.6287   -2.0934   -5.0995 H        1 ZINC000040422789    0.1200
37     H37    -1.2286   -5.7798   -3.2389 H        1 ZINC000040422789    0.4300
38     H38     0.0638   -4.1972    1.3141 H        1 ZINC000040422789    0.1300
39     H39     0.0386   -1.3216    4.4645 H        1 ZINC000040422789    0.1300
40     H40     0.0067    0.5092    2.8313 H        1 ZINC000040422789    0.1300
@<TRIPOS>BOND
1     1     2     1
2     1     28    1
3     1     29    1
4     1     30    1
5     2     27    1
6     2     3     1
7     3     4     2
8     3     31    1
9     4     5     1
10    4     21    1
11    5     19    1
12    5     6     2
13    6     7     1
14    6     16    1
15    7     15    1
16    7     8     2
17    8     9     1
18    8     32    1
19    9     10    1
20    10    15    ar
21    10    11    ar
22    11    12    ar
23    11    33    1
24    12    13    ar
25    12    34    1
26    13    14    ar
27    13    35    1
28    14    15    ar
29    14    36    1
30    16    17    2
31    16    18    am
32    18    19    am
33    18    37    1
34    19    20    2
35    21    27    ar
36    21    22    ar
37    22    23    ar
38    22    38    1
39    23    24    1
40    23    25    ar
41    25    26    ar
42    25    39    1
43    26    27    ar
44    26    40    1
@<TRIPOS>SUBSTRUCTURE
1   ZINC000040422789 1     RESIDUE    1   A     ZIN   1


@<TRIPOS>MOLECULE
CCCCCC=CCC=CCC=CCC=CCCCC(=O)NC1=CC=C(C=C1)O
66    66    1     0     0
SMALL
USER_CHARGES
@<TRIPOS>ATOM
1      C1      0.3882    2.0414    2.9124 C.3      1 ZINC000003871503   -0.1500
2      C2      0.2332    0.5266    3.0619 C.3      1 ZINC000003871503   -0.1300
3      C3      1.4348   -0.0364    3.8235 C.3      1 ZINC000003871503   -0.1200
4      C4      1.2797   -1.5511    3.9731 C.3      1 ZINC000003871503   -0.1100
5      C5      2.4814   -2.1141    4.7347 C.3      1 ZINC000003871503   -0.1000
6      C6      2.3287   -3.6061    4.8820 C.2      1 ZINC000003871503   -0.1600
7      C7      3.2994   -4.4037    4.5109 C.2      1 ZINC000003871503   -0.1500
8      C8      4.6316   -3.8298    4.1025 C.3      1 ZINC000003871503   -0.0800
9      C9      5.7274   -4.4840    4.9039 C.2      1 ZINC000003871503   -0.1500
10     C10     6.7558   -5.0184    4.2932 C.2      1 ZINC000003871503   -0.1500
11     C11     6.9333   -4.8276    2.8089 C.3      1 ZINC000003871503   -0.0800
12     C12     8.3089   -4.2768    2.5342 C.2      1 ZINC000003871503   -0.1500
13     C13     9.0986   -4.8820    1.6819 C.2      1 ZINC000003871503   -0.1500
14     C14     8.5738   -6.0211    0.8463 C.3      1 ZINC000003871503   -0.0800
15     C15     8.8482   -5.7442   -0.6094 C.2      1 ZINC000003871503   -0.1500
16     C16     9.4793   -6.6319   -1.3373 C.2      1 ZINC000003871503   -0.1600
17     C17     9.7758   -7.9969   -0.7718 C.3      1 ZINC000003871503   -0.1000
18     C18     9.2663   -9.0701   -1.7360 C.3      1 ZINC000003871503   -0.1000
19     C19     9.5673  -10.4559   -1.1618 C.3      1 ZINC000003871503   -0.1400
20     C20     9.0655  -11.5130   -2.1115 C.2      1 ZINC000003871503    0.5100
21     O21     8.5206  -11.1896   -3.1458 O.2      1 ZINC000003871503   -0.5200
22     N22     9.2220  -12.8175   -1.8115 N.am     1 ZINC000003871503   -0.6800
23     C23     8.8489  -13.7993   -2.7388 C.ar     1 ZINC000003871503    0.1400
24     C24     8.3544  -15.0193   -2.2975 C.ar     1 ZINC000003871503   -0.1300
25     C25     7.9863  -15.9863   -3.2121 C.ar     1 ZINC000003871503   -0.1200
26     C26     8.1109  -15.7391   -4.5714 C.ar     1 ZINC000003871503    0.0900
27     O27     7.7488  -16.6919   -5.4713 O.3      1 ZINC000003871503   -0.5000
28     C28     8.6045  -14.5202   -5.0130 C.ar     1 ZINC000003871503   -0.1200
29     C29     8.9680  -13.5504   -4.0996 C.ar     1 ZINC000003871503   -0.1100
30     H30     1.3028    2.2603    2.3612 H        1 ZINC000003871503    0.0500
31     H31    -0.4678    2.4424    2.3698 H        1 ZINC000003871503    0.0500
32     H32     0.4402    2.5005    3.8996 H        1 ZINC000003871503    0.0500
33     H33    -0.6814    0.3076    3.6131 H        1 ZINC000003871503    0.0600
34     H34     0.1812    0.0675    2.0747 H        1 ZINC000003871503    0.0600
35     H35     2.3493    0.1826    3.2724 H        1 ZINC000003871503    0.0600
36     H36     1.4868    0.4228    4.8108 H        1 ZINC000003871503    0.0600
37     H37     0.3652   -1.7701    4.5242 H        1 ZINC000003871503    0.0600
38     H38     1.2277   -2.0102    2.9858 H        1 ZINC000003871503    0.0600
39     H39     3.3959   -1.8951    4.1835 H        1 ZINC000003871503    0.0800
40     H40     2.5334   -1.6550    5.7219 H        1 ZINC000003871503    0.0700
41     H41     1.4189   -4.0178    5.2934 H        1 ZINC000003871503    0.1100
42     H42     3.1449   -5.4725    4.4978 H        1 ZINC000003871503    0.1100
43     H43     4.7972   -4.0155    3.0412 H        1 ZINC000003871503    0.0800
44     H44     4.6371   -2.7558    4.2886 H        1 ZINC000003871503    0.0800
45     H45     5.6648   -4.5124    5.9817 H        1 ZINC000003871503    0.1100
46     H46     7.4765   -5.5956    4.8535 H        1 ZINC000003871503    0.1100
47     H47     6.8181   -5.7862    2.3030 H        1 ZINC000003871503    0.0800
48     H48     6.1820   -4.1294    2.4399 H        1 ZINC000003871503    0.0800
49     H49     8.6437   -3.3833    3.0400 H        1 ZINC000003871503    0.1100
50     H50    10.1256   -4.5645    1.5780 H        1 ZINC000003871503    0.1100
51     H51     9.0703   -6.9459    1.1401 H        1 ZINC000003871503    0.0800
52     H52     7.4995   -6.1204    1.0011 H        1 ZINC000003871503    0.0800
53     H53     8.5245   -4.8140   -1.0525 H        1 ZINC000003871503    0.1100
54     H54     9.7871   -6.3854   -2.3428 H        1 ZINC000003871503    0.1100
55     H55    10.8518   -8.1092   -0.6388 H        1 ZINC000003871503    0.0700
56     H56     9.2772   -8.1074    0.1912 H        1 ZINC000003871503    0.0800
57     H57     8.1903   -8.9577   -1.8690 H        1 ZINC000003871503    0.0700
58     H58     9.7649   -8.9596   -2.6989 H        1 ZINC000003871503    0.0700
59     H59    10.6433  -10.5682   -1.0288 H        1 ZINC000003871503    0.1000
60     H60     9.0687  -10.5664   -0.1988 H        1 ZINC000003871503    0.1000
61     H61     9.5931  -13.0768   -0.9536 H        1 ZINC000003871503    0.4100
62     H62     8.2579  -15.2122   -1.2393 H        1 ZINC000003871503    0.1300
63     H63     7.6017  -16.9354   -2.8689 H        1 ZINC000003871503    0.1300
64     H64     6.8234  -16.6406   -5.7474 H        1 ZINC000003871503    0.3900
65     H65     8.7013  -14.3284   -6.0714 H        1 ZINC000003871503    0.1300
66     H66     9.3519  -12.6013   -4.4435 H        1 ZINC000003871503    0.1400
@<TRIPOS>BOND
1     1     2     1
2     1     30    1
3     1     31    1
4     1     32    1
5     2     3     1
6     2     33    1
7     2     34    1
8     3     4     1
9     3     35    1
10    3     36    1
11    4     5     1
12    4     37    1
13    4     38    1
14    5     6     1
15    5     39    1
16    5     40    1
17    6     7     2
18    6     41    1
19    7     8     1
20    7     42    1
21    8     9     1
22    8     43    1
23    8     44    1
24    9     10    2
25    9     45    1
26    10    11    1
27    10    46    1
28    11    12    1
29    11    47    1
30    11    48    1
31    12    13    2
32    12    49    1
33    13    14    1
34    13    50    1
35    14    15    1
36    14    51    1
37    14    52    1
38    15    16    2
39    15    53    1
40    16    17    1
41    16    54    1
42    17    18    1
43    17    55    1
44    17    56    1
45    18    19    1
46    18    57    1
47    18    58    1
48    19    20    1
49    19    59    1
50    19    60    1
51    20    21    2
52    20    22    am
53    22    23    1
54    22    61    1
55    23    29    ar
56    23    24    ar
57    24    25    ar
58    24    62    1
59    25    26    ar
60    25    63    1
61    26    27    1
62    26    28    ar
63    27    64    1
64    28    29    ar
65    28    65    1
66    29    66    1
@<TRIPOS>SUBSTRUCTURE
1   ZINC000003871503 1     RESIDUE    1   A     ZIN   1


@<TRIPOS>MOLECULE
CN(C)CCCN1C=C(C2=CC=CC=C21)C3=C(C(=O)NC3=O)C4=CNC5=CC=CC=C54
56    60    1     0     0
SMALL
USER_CHARGES
@<TRIPOS>ATOM
1      C1     -0.0178    1.4648    0.0101 C.3      1 ZINC000000585151   -0.0500
2      N2      0.0021   -0.0041    0.0020 N.4      1 ZINC000000585151   -0.3900
3      H3      0.4743   -0.3295   -0.8281 H        1 ZINC000000585151    0.4300
4      C4      0.7126   -0.4907    1.1921 C.3      1 ZINC000000585151   -0.0500
5      C5     -1.3761   -0.5125    0.0124 C.3      1 ZINC000000585151   -0.0100
6      C6     -1.3584   -2.0365   -0.1216 C.3      1 ZINC000000585151   -0.1700
7      C7     -2.7938   -2.5661   -0.1108 C.3      1 ZINC000000585151    0.1200
8      N8     -2.7769   -4.0254   -0.2392 N.pl3    1 ZINC000000585151   -0.4800
9      C9     -2.9035   -4.7044   -1.4120 C.2      1 ZINC000000585151    0.0900
10     C10    -2.8450   -6.0461   -1.1745 C.2      1 ZINC000000585151   -0.1200
11     C11    -2.9420   -7.1226   -2.1745 C.2      1 ZINC000000585151   -0.0400
12     C12    -1.9598   -7.5172   -3.0754 C.2      1 ZINC000000585151   -0.0200
13     C13    -0.6116   -6.9436   -3.2227 C.2      1 ZINC000000585151   -0.1400
14     C14     0.4527   -7.1378   -2.3923 C.2      1 ZINC000000585151    0.1000
15     N15     1.5281   -6.4438   -2.8555 N.pl3    1 ZINC000000585151   -0.5900
16     C16     1.1998   -5.7682   -4.0125 C.ar     1 ZINC000000585151    0.0900
17     C17     1.9174   -4.9343   -4.8633 C.ar     1 ZINC000000585151   -0.1300
18     C18     1.3048   -4.3910   -5.9718 C.ar     1 ZINC000000585151   -0.1000
19     C19    -0.0258   -4.6668   -6.2505 C.ar     1 ZINC000000585151   -0.1400
20     C20    -0.7542   -5.4901   -5.4197 C.ar     1 ZINC000000585151   -0.0700
21     C21    -0.1459   -6.0521   -4.2996 C.ar     1 ZINC000000585151   -0.0800
22     C22    -2.5421   -8.6290   -3.8552 C.2      1 ZINC000000585151    0.5500
23     O23    -1.9835   -9.2396   -4.7446 O.2      1 ZINC000000585151   -0.4400
24     N24    -3.7924   -8.8522   -3.4165 N.am     1 ZINC000000585151   -0.6900
25     C25    -4.1007   -8.0062   -2.4191 C.2      1 ZINC000000585151    0.5600
26     O26    -5.1590   -7.9682   -1.8237 O.2      1 ZINC000000585151   -0.4500
27     C27    -2.6658   -6.2072    0.2793 C.ar     1 ZINC000000585151   -0.0800
28     C28    -2.5396   -7.3097    1.1211 C.ar     1 ZINC000000585151   -0.0700
29     C29    -2.3802   -7.1185    2.4764 C.ar     1 ZINC000000585151   -0.1300
30     C30    -2.3455   -5.8357    3.0031 C.ar     1 ZINC000000585151   -0.0900
31     C31    -2.4691   -4.7357    2.1820 C.ar     1 ZINC000000585151   -0.1300
32     C32    -2.6245   -4.9073    0.8106 C.ar     1 ZINC000000585151    0.0900
33     H33     1.0047    1.8421    0.0024 H        1 ZINC000000585151    0.1300
34     H34    -0.5450    1.8259   -0.8730 H        1 ZINC000000585151    0.1200
35     H35    -0.5280    1.8163    0.9069 H        1 ZINC000000585151    0.1200
36     H36     0.7274   -1.5806    1.1861 H        1 ZINC000000585151    0.1200
37     H37     1.7352   -0.1134    1.1844 H        1 ZINC000000585151    0.1300
38     H38     0.2024   -0.1392    2.0889 H        1 ZINC000000585151    0.1200
39     H39    -1.8584   -0.2358    0.9500 H        1 ZINC000000585151    0.1300
40     H40    -1.9290   -0.0808   -0.8218 H        1 ZINC000000585151    0.1400
41     H41    -0.8762   -2.3132   -1.0592 H        1 ZINC000000585151    0.1000
42     H42    -0.8055   -2.4683    0.7126 H        1 ZINC000000585151    0.1000
43     H43    -3.2761   -2.2894    0.8268 H        1 ZINC000000585151    0.1000
44     H44    -3.3467   -2.1344   -0.9450 H        1 ZINC000000585151    0.1000
45     H45    -3.0310   -4.2498   -2.3833 H        1 ZINC000000585151    0.1800
46     H46     0.4435   -7.7492   -1.5020 H        1 ZINC000000585151    0.1800
47     H47     2.4008   -6.4266   -2.4322 H        1 ZINC000000585151    0.4200
48     H48     2.9537   -4.7124   -4.6552 H        1 ZINC000000585151    0.1200
49     H49     1.8660   -3.7439   -6.6297 H        1 ZINC000000585151    0.1300
50     H50    -0.4933   -4.2338   -7.1225 H        1 ZINC000000585151    0.1300
51     H51    -1.7902   -5.7027   -5.6385 H        1 ZINC000000585151    0.1200
52     H52    -4.3880   -9.5325   -3.7679 H        1 ZINC000000585151    0.4300
53     H53    -2.5670   -8.3096    0.7137 H        1 ZINC000000585151    0.1200
54     H54    -2.2821   -7.9714    3.1316 H        1 ZINC000000585151    0.1300
55     H55    -2.2207   -5.6977    4.0670 H        1 ZINC000000585151    0.1300
56     H56    -2.4407   -3.7414    2.6026 H        1 ZINC000000585151    0.1200
@<TRIPOS>BOND
1     1     2     1
2     1     33    1
3     1     34    1
4     1     35    1
5     2     3     1
6     2     4     1
7     2     5     1
8     4     36    1
9     4     37    1
10    4     38    1
11    5     6     1
12    5     39    1
13    5     40    1
14    6     7     1
15    6     41    1
16    6     42    1
17    7     8     1
18    7     43    1
19    7     44    1
20    8     32    1
21    8     9     1
22    9     10    2
23    9     45    1
24    10    11    1
25    10    27    1
26    11    25    1
27    11    12    2
28    12    13    1
29    12    22    1
30    13    21    1
31    13    14    2
32    14    15    1
33    14    46    1
34    15    16    1
35    15    47    1
36    16    21    ar
37    16    17    ar
38    17    18    ar
39    17    48    1
40    18    19    ar
41    18    49    1
42    19    20    ar
43    19    50    1
44    20    21    ar
45    20    51    1
46    22    23    2
47    22    24    am
48    24    25    am
49    24    52    1
50    25    26    2
51    27    32    ar
52    27    28    ar
53    28    29    ar
54    28    53    1
55    29    30    ar
56    29    54    1
57    30    31    ar
58    30    55    1
59    31    32    ar
60    31    56    1
@<TRIPOS>SUBSTRUCTURE
1   ZINC000000585151 1     RESIDUE    1   A     ZIN   1


@<TRIPOS>MOLECULE
CC(=O)NCCC1=CNC2=C1C=C(C=C2)OC
  33   34    0    0    0
SMALL
USER_CHARGES
NO_NAME
@<TRIPOS>ATOM
    1 C1       -0.0173     1.4248     0.0099 C.3    1 <0>       0.0300
    2 O2        0.0021    -0.0041     0.0020 O.3    1 <0>      -0.3200
    3 C3       -1.2011    -0.6379     0.0101 C.ar   1 <0>       0.1000
    4 C4       -2.3771     0.1072     0.0195 C.ar   1 <0>      -0.1800
    5 C5       -3.6040    -0.5186     0.0273 C.ar   1 <0>      -0.0900
    6 C6       -3.6760    -1.9073     0.0258 C.ar   1 <0>       0.0600
    7 N7       -4.7263    -2.8010     0.0320 N.pl3  1 <0>      -0.5900
    8 C8       -4.2463    -4.0820     0.0268 C.2    1 <0>       0.0700
    9 C9       -2.9040    -4.0680     0.0173 C.2    1 <0>      -0.1800
   10 C10      -1.9953    -5.2702     0.0084 C.3    1 <0>      -0.0500
   11 C11      -1.5768    -5.6038     1.4417 C.3    1 <0>       0.1200
   12 N12      -0.6935    -6.7725     1.4331 N.am   1 <0>      -0.7300
   13 C13      -0.1974    -7.2508     2.5913 C.2    1 <0>       0.5100
   14 C14       0.7113    -8.4531     2.5824 C.3    1 <0>      -0.1700
   15 O15      -0.4822    -6.7138     3.6407 O.2    1 <0>      -0.5500
   16 C16      -2.4897    -2.6629     0.0163 C.ar   1 <0>      -0.0600
   17 C17      -1.2514    -2.0177     0.0032 C.ar   1 <0>      -0.1100
   18 H18       1.0053     1.8021     0.0021 H      1 <0>       0.1000
   19 H19      -0.5445     1.7859    -0.8732 H      1 <0>       0.0500
   20 H20      -0.5275     1.7763     0.9067 H      1 <0>       0.0500
   21 H21      -2.3269     1.1860     0.0211 H      1 <0>       0.1300
   22 H22      -4.5100     0.0692     0.0350 H      1 <0>       0.1200
   23 H23      -5.6652    -2.5575     0.0393 H      1 <0>       0.4200
   24 H24      -4.8570    -4.9728     0.0298 H      1 <0>       0.1700
   25 H25      -2.5225    -6.1209    -0.4235 H      1 <0>       0.0800
   26 H26      -1.1091    -5.0514    -0.5873 H      1 <0>       0.0800
   27 H27      -1.0497    -4.7532     1.8736 H      1 <0>       0.0700
   28 H28      -2.4631    -5.8226     2.0374 H      1 <0>       0.0700
   29 H29      -0.4657    -7.2021     0.5937 H      1 <0>       0.4000
   30 H30       1.7464    -8.1254     2.4857 H      1 <0>       0.0900
   31 H31       0.5909    -9.0064     3.5137 H      1 <0>       0.0900
   32 H32       0.4539    -9.0968     1.7413 H      1 <0>       0.0800
   33 H33      -0.3384    -2.5946    -0.0096 H      1 <0>       0.1300
@<TRIPOS>BOND
   1    1    2 1
   2    1   18 1
   3    1   19 1
   4    1   20 1
   5    2    3 1
   6    3   17 ar
   7    3    4 ar
   8    4    5 ar
   9    4   21 1
  10    5    6 ar
  11    5   22 1
  12    6   16 ar
  13    6    7 1
  14    7    8 1
  15    7   23 1
  16    8    9 2
  17    8   24 1
  18    9   10 1
  19    9   16 1
  20   10   11 1
  21   10   25 1
  22   10   26 1
  23   11   12 1
  24   11   27 1
  25   11   28 1
  26   12   13 am
  27   12   29 1
  28   13   14 1
  29   13   15 2
  30   14   30 1
  31   14   31 1
  32   14   32 1
  33   16   17 ar
  34   17   33 1


@<TRIPOS>MOLECULE
C1=CC=C(C(=C1)C(=O)NC2=CC=C(C=C2)S(=O)(=O)NC3=NC=CS3)C(=O)O
38    40    1     0     0
SMALL
USER_CHARGES
@<TRIPOS>ATOM
1      O1     -3.7329    7.9419   -1.7667 O.co2    1 ZINC000001530877   -0.6800
2      C2     -3.4478    6.8630   -2.2666 C.2      1 ZINC000001530877    0.5400
3      O3     -3.0768    6.8075   -3.4304 O.co2    1 ZINC000001530877   -0.6800
4      C4     -3.5458    5.6279   -1.4631 C.ar     1 ZINC000001530877   -0.0500
5      C5     -4.7606    4.9545   -1.3584 C.ar     1 ZINC000001530877   -0.1200
6      C6     -4.8470    3.7983   -0.6052 C.ar     1 ZINC000001530877   -0.1000
7      C7     -3.7326    3.3032    0.0475 C.ar     1 ZINC000001530877   -0.1500
8      C8     -2.5180    3.9584   -0.0450 C.ar     1 ZINC000001530877   -0.0900
9      C9     -2.4102    5.1203   -0.8025 C.ar     1 ZINC000001530877   -0.1300
10     C10    -1.1129    5.8244   -0.9048 C.2      1 ZINC000001530877    0.5400
11     O11    -1.0444    6.8911   -1.4834 O.2      1 ZINC000001530877   -0.4600
12     N12    -0.0072    5.2830   -0.3564 N.am     1 ZINC000001530877   -0.6800
13     C13     1.1953    5.9965   -0.3583 C.ar     1 ZINC000001530877    0.2000
14     C14     2.4045    5.3222   -0.4697 C.ar     1 ZINC000001530877   -0.1800
15     C15     3.5904    6.0299   -0.4718 C.ar     1 ZINC000001530877    0.0000
16     C16     3.5749    7.4084   -0.3631 C.ar     1 ZINC000001530877   -0.6500
17     S17     5.0902    8.3076   -0.3661 S.o2     1 ZINC000001530877    2.6500
18     O18     4.8267    9.5402    0.2899 O.2      1 ZINC000001530877   -1.0100
19     O19     6.0964    7.3996    0.0607 O.2      1 ZINC000001530877   -1.0200
20     N20     5.4354    8.6811   -1.9421 N.pl3    1 ZINC000001530877   -1.0500
21     C21     6.5831    9.3948   -2.2498 C.2      1 ZINC000001530877    0.4000
22     N22     7.4534    9.8117   -1.3834 N.2      1 ZINC000001530877   -0.6300
23     C23     8.4922   10.4788   -1.8540 C.2      1 ZINC000001530877    0.1000
24     C24     8.4990   10.6321   -3.1784 C.2      1 ZINC000001530877   -0.3700
25     S25     7.0615    9.8474   -3.8275 S.3      1 ZINC000001530877    0.0300
26     C26     2.3727    8.0829   -0.2525 C.ar     1 ZINC000001530877    0.0000
27     C27     1.1830    7.3815   -0.2546 C.ar     1 ZINC000001530877   -0.1500
28     H28    -5.6349    5.3356   -1.8651 H        1 ZINC000001530877    0.1200
29     H29    -5.7905    3.2787   -0.5258 H        1 ZINC000001530877    0.1200
30     H30    -3.8114    2.3994    0.6335 H        1 ZINC000001530877    0.1200
31     H31    -1.6522    3.5658    0.4675 H        1 ZINC000001530877    0.1200
32     H32    -0.0456    4.3984    0.0396 H        1 ZINC000001530877    0.4000
33     H33     2.4174    4.2456   -0.5543 H        1 ZINC000001530877    0.1300
34     H34     4.5310    5.5062   -0.5580 H        1 ZINC000001530877    0.1400
35     H35     9.2725   10.8688   -1.2173 H        1 ZINC000001530877    0.1500
36     H36     9.2561   11.1445   -3.7535 H        1 ZINC000001530877    0.1500
37     H37     2.3640    9.1595   -0.1678 H        1 ZINC000001530877    0.1400
38     H38     0.2444    7.9089   -0.1686 H        1 ZINC000001530877    0.1400
@<TRIPOS>BOND
1     1     2     ar
2     2     3     ar
3     2     4     1
4     4     9     ar
5     4     5     ar
6     5     6     ar
7     5     28    1
8     6     7     ar
9     6     29    1
10    7     8     ar
11    7     30    1
12    8     9     ar
13    8     31    1
14    9     10    1
15    10    11    2
16    10    12    am
17    12    13    1
18    12    32    1
19    13    27    ar
20    13    14    ar
21    14    15    ar
22    14    33    1
23    15    16    ar
24    15    34    1
25    16    17    1
26    16    26    ar
27    17    18    2
28    17    19    2
29    17    20    1
30    20    21    1
31    21    25    1
32    21    22    2
33    22    23    1
34    23    24    2
35    23    35    1
36    24    25    1
37    24    36    1
38    26    27    ar
39    26    37    1
40    27    38    1
@<TRIPOS>SUBSTRUCTURE
1   ZINC000001530877 1     RESIDUE    1   A     ZIN   1


@<TRIPOS>MOLECULE
C1=CC=C(C=C1)S(=O)(=O)NC2=CC(=C(C=C2)NS(=O)(=O)C3=CC=CC=C3)[N+](=O)[O-]
42    44    1     0     0
SMALL
USER_CHARGES
@<TRIPOS>ATOM
1      O1      0.0021   -0.0041    0.0020 O.2      1 ZINC000005009026   -0.2800
2      N2     -0.0144    1.2138    0.0087 N.pl3    1 ZINC000005009026    0.0700
3      O3      1.0320    1.8371    0.0021 O.2      1 ZINC000005009026   -0.1400
4      C4     -1.3061    1.9363    0.0188 C.ar     1 ZINC000005009026   -0.0700
5      C5     -2.4923    1.2298    0.0263 C.ar     1 ZINC000005009026   -0.1000
6      C6     -3.7043    1.9077    0.0358 C.ar     1 ZINC000005009026    0.2000
7      N7     -4.9071    1.1913    0.0434 N.pl3    1 ZINC000005009026   -1.0900
8      S8     -6.3524    1.9997    0.0547 S.o2     1 ZINC000005009026    2.5900
9      O9     -6.4279    2.6692    1.3058 O.2      1 ZINC000005009026   -1.0400
10     O10    -6.4456    2.6723   -1.1936 O.2      1 ZINC000005009026   -1.0400
11     C11    -7.6291    0.7854    0.0622 C.ar     1 ZINC000005009026   -0.6000
12     C12    -8.1345    0.3065   -1.1319 C.ar     1 ZINC000005009026   -0.0300
13     C13    -9.1362   -0.6462   -1.1260 C.ar     1 ZINC000005009026   -0.1500
14     C14    -9.6322   -1.1201    0.0741 C.ar     1 ZINC000005009026   -0.0900
15     C15    -9.1261   -0.6418    1.2683 C.ar     1 ZINC000005009026   -0.1500
16     C16    -8.1215    0.3077    1.2623 C.ar     1 ZINC000005009026   -0.0300
17     C17    -3.7232    3.2960    0.0381 C.ar     1 ZINC000005009026   -0.1400
18     C18    -2.5367    4.0028    0.0310 C.ar     1 ZINC000005009026   -0.2100
19     C19    -1.3249    3.3250    0.0264 C.ar     1 ZINC000005009026    0.2700
20     N20    -0.1222    4.0414    0.0192 N.pl3    1 ZINC000005009026   -1.0400
21     S21    -0.1447    5.6972    0.0161 S.o2     1 ZINC000005009026    2.5900
22     O22    -0.7006    6.0886   -1.2317 O.2      1 ZINC000005009026   -1.0300
23     O23    -0.6885    6.0935    1.2677 O.2      1 ZINC000005009026   -1.0300
24     C24     1.5311    6.2416    0.0070 C.ar     1 ZINC000005009026   -0.6000
25     C25     2.1960    6.4521    1.2005 C.ar     1 ZINC000005009026   -0.0200
26     C26     3.5107    6.8792    1.1933 C.ar     1 ZINC000005009026   -0.1500
27     C27     4.1606    7.0954   -0.0074 C.ar     1 ZINC000005009026   -0.0900
28     C28     3.4960    6.8841   -1.2009 C.ar     1 ZINC000005009026   -0.1500
29     C29     2.1826    6.4529   -1.1938 C.ar     1 ZINC000005009026   -0.0200
30     H30    -2.4776    0.1499    0.0245 H        1 ZINC000005009026    0.1300
31     H31    -7.7471    0.6768   -2.0696 H        1 ZINC000005009026    0.1400
32     H32    -9.5316   -1.0199   -2.0590 H        1 ZINC000005009026    0.1200
33     H33   -10.4153   -1.8639    0.0787 H        1 ZINC000005009026    0.1200
34     H34    -9.5139   -1.0119    2.2059 H        1 ZINC000005009026    0.1200
35     H35    -7.7261    0.6813    2.1953 H        1 ZINC000005009026    0.1400
36     H36    -4.6658    3.8232    0.0450 H        1 ZINC000005009026    0.1000
37     H37    -2.5513    5.0827    0.0328 H        1 ZINC000005009026    0.1100
38     H38     1.6882    6.2831    2.1386 H        1 ZINC000005009026    0.1400
39     H39     4.0299    7.0443    2.1258 H        1 ZINC000005009026    0.1200
40     H40     5.1875    7.4298   -0.0130 H        1 ZINC000005009026    0.1200
41     H41     4.0037    7.0534   -2.1390 H        1 ZINC000005009026    0.1200
42     H42     1.6634    6.2878   -2.1262 H        1 ZINC000005009026    0.1400
@<TRIPOS>BOND
1     1     2     2
2     2     3     2
3     2     4     1
4     4     19    ar
5     4     5     ar
6     5     6     ar
7     5     30    1
8     6     7     1
9     6     17    ar
10    7     8     1
11    8     9     2
12    8     10    2
13    8     11    1
14    11    16    ar
15    11    12    ar
16    12    13    ar
17    12    31    1
18    13    14    ar
19    13    32    1
20    14    15    ar
21    14    33    1
22    15    16    ar
23    15    34    1
24    16    35    1
25    17    18    ar
26    17    36    1
27    18    19    ar
28    18    37    1
29    19    20    1
30    20    21    1
31    21    22    2
32    21    23    2
33    21    24    1
34    24    29    ar
35    24    25    ar
36    25    26    ar
37    25    38    1
38    26    27    ar
39    26    39    1
40    27    28    ar
41    27    40    1
42    28    29    ar
43    28    41    1
44    29    42    1
@<TRIPOS>SUBSTRUCTURE
1   ZINC000005009026 1     RESIDUE    1   A     ZIN   1


@<TRIPOS>MOLECULE
CC1=CC(=O)OC2=C1C=CC(=C2NC(=O)CC3=CC=CC=C3C(=O)O)O
39    41    1     0     0
SMALL
USER_CHARGES
@<TRIPOS>ATOM
1      C1     -3.1773    0.9798    1.2222 C.3      1 ZINC000072326235   -0.1200
2      C2     -2.8763   -0.4947    1.1412 C.2      1 ZINC000072326235    0.0800
3      C3     -3.6385   -1.3214    0.3793 C.2      1 ZINC000072326235   -0.3500
4      C4     -3.3367   -2.6976    0.3198 C.2      1 ZINC000072326235    0.5100
5      O5     -4.0283   -3.4278   -0.3672 O.2      1 ZINC000072326235   -0.5200
6      O6     -2.3065   -3.2231    1.0008 O.3      1 ZINC000072326235   -0.2700
7      C7     -1.5098   -2.4563    1.7765 C.ar     1 ZINC000072326235    0.1600
8      C8     -0.4454   -3.0169    2.4763 C.ar     1 ZINC000072326235    0.0000
9      N9     -0.1865   -4.3927    2.3826 N.am     1 ZINC000072326235   -0.6600
10     C10     0.2662   -5.0679    3.4576 C.2      1 ZINC000072326235    0.5300
11     O11     0.3924   -4.4997    4.5218 O.2      1 ZINC000072326235   -0.4700
12     C12     0.6155   -6.5289    3.3374 C.3      1 ZINC000072326235   -0.0900
13     C13     1.0928   -7.0427    4.6714 C.ar     1 ZINC000072326235   -0.0200
14     C14     2.4433   -7.1652    4.9218 C.ar     1 ZINC000072326235   -0.1300
15     C15     2.8835   -7.6364    6.1465 C.ar     1 ZINC000072326235   -0.1300
16     C16     1.9735   -7.9881    7.1276 C.ar     1 ZINC000072326235   -0.1500
17     C17     0.6195   -7.8712    6.8911 C.ar     1 ZINC000072326235   -0.0900
18     C18     0.1681   -7.3905    5.6595 C.ar     1 ZINC000072326235   -0.1200
19     C19    -1.2785   -7.2622    5.3991 C.2      1 ZINC000072326235    0.5200
20     O20    -2.0864   -7.6749    6.2192 O.co2    1 ZINC000072326235   -0.7000
21     O21    -1.6696   -6.7430    4.3633 O.co2    1 ZINC000072326235   -0.6700
22     C22     0.3605   -2.2065    3.2684 C.ar     1 ZINC000072326235    0.3100
23     O23     1.4002   -2.7516    3.9519 O.3      1 ZINC000072326235   -0.6200
24     C24     0.1099   -0.8411    3.3657 C.ar     1 ZINC000072326235   -0.2500
25     C25    -0.9309   -0.2770    2.6848 C.ar     1 ZINC000072326235   -0.0300
26     C26    -1.7503   -1.0740    1.8772 C.ar     1 ZINC000072326235   -0.2900
27     H27    -2.6356    1.5049    0.4355 H        1 ZINC000072326235    0.0800
28     H28    -4.2480    1.1395    1.0950 H        1 ZINC000072326235    0.0700
29     H29    -2.8660    1.3613    2.1946 H        1 ZINC000072326235    0.0700
30     H30    -4.4739   -0.9257   -0.1794 H        1 ZINC000072326235    0.1300
31     H31    -0.3332   -4.8578    1.5441 H        1 ZINC000072326235    0.3900
32     H32    -0.2664   -7.0891    3.0268 H        1 ZINC000072326235    0.1200
33     H33     1.4050   -6.6540    2.5963 H        1 ZINC000072326235    0.0600
34     H34     3.1593   -6.8932    4.1603 H        1 ZINC000072326235    0.1100
35     H35     3.9423   -7.7303    6.3371 H        1 ZINC000072326235    0.1100
36     H36     2.3241   -8.3554    8.0808 H        1 ZINC000072326235    0.1100
37     H37    -0.0897   -8.1465    7.6577 H        1 ZINC000072326235    0.1200
38     H38     0.7431   -0.2228    3.9847 H        1 ZINC000072326235    0.1100
39     H39    -1.1188    0.7835    2.7660 H        1 ZINC000072326235    0.1100
@<TRIPOS>BOND
1     1     2     1
2     1     27    1
3     1     28    1
4     1     29    1
5     2     26    1
6     2     3     2
7     3     4     1
8     3     30    1
9     4     5     2
10    4     6     1
11    6     7     1
12    7     26    ar
13    7     8     ar
14    8     9     1
15    8     22    ar
16    9     10    am
17    9     31    1
18    10    11    2
19    10    12    1
20    12    13    1
21    12    32    1
22    12    33    1
23    13    18    ar
24    13    14    ar
25    14    15    ar
26    14    34    1
27    15    16    ar
28    15    35    1
29    16    17    ar
30    16    36    1
31    17    18    ar
32    17    37    1
33    18    19    1
34    19    20    ar
35    19    21    ar
36    22    23    1
37    22    24    ar
38    24    25    ar
39    24    38    1
40    25    26    ar
41    25    39    1
@<TRIPOS>SUBSTRUCTURE
1   ZINC000072326235 1     RESIDUE    1   A     ZIN   1


@<TRIPOS>MOLECULE
CCOC(=O)C1=CC=CC=C1NCC2=CC(=O)OC3=CC(=C(C=C23)O)O
43    45    1     0     0
SMALL
USER_CHARGES
@<TRIPOS>ATOM
1      C1     -0.0226    1.5280   -0.0921 C.3      1 ZINC000002159818   -0.1500
2      C2     -0.0005   -0.0016   -0.0621 C.3      1 ZINC000002159818    0.0600
3      O3     -1.3623   -0.5050   -0.0426 O.3      1 ZINC000002159818   -0.3500
4      C4     -1.5195   -1.8432   -0.0151 C.2      1 ZINC000002159818    0.5200
5      O5     -0.5452   -2.5695   -0.0075 O.2      1 ZINC000002159818   -0.5200
6      C6     -2.8723   -2.4256    0.0059 C.ar     1 ZINC000002159818   -0.2200
7      C7     -3.9925   -1.5979    0.1206 C.ar     1 ZINC000002159818   -0.0100
8      C8     -5.2550   -2.1489    0.1391 C.ar     1 ZINC000002159818   -0.1900
9      C9     -5.4217   -3.5215    0.0445 C.ar     1 ZINC000002159818   -0.0300
10     C10    -4.3260   -4.3525   -0.0688 C.ar     1 ZINC000002159818   -0.2200
11     C11    -3.0450   -3.8157   -0.0951 C.ar     1 ZINC000002159818    0.2800
12     N12    -1.9409   -4.6496   -0.2096 N.pl3    1 ZINC000002159818   -0.7300
13     C13    -2.1276   -6.0868   -0.4239 C.3      1 ZINC000002159818    0.1500
14     C14    -0.7824   -6.7604   -0.5126 C.2      1 ZINC000002159818    0.0100
15     C15    -0.2175   -7.3369    0.5803 C.2      1 ZINC000002159818   -0.2100
16     C16     1.0421   -7.9608    0.4714 C.2      1 ZINC000002159818    0.5100
17     O17     1.5374   -8.4738    1.4589 O.2      1 ZINC000002159818   -0.4500
18     O18     1.7091   -8.0044   -0.6921 O.3      1 ZINC000002159818   -0.2700
19     C19     1.2039   -7.4507   -1.8162 C.ar     1 ZINC000002159818    0.1600
20     C20     1.9086   -7.5067   -3.0096 C.ar     1 ZINC000002159818   -0.1500
21     C21     1.3791   -6.9353   -4.1533 C.ar     1 ZINC000002159818    0.1400
22     O22     2.0736   -6.9932   -5.3190 O.3      1 ZINC000002159818   -0.4800
23     C23     0.1348   -6.2994   -4.1183 C.ar     1 ZINC000002159818    0.0700
24     O24    -0.3742   -5.7423   -5.2500 O.3      1 ZINC000002159818   -0.4800
25     C25    -0.5780   -6.2358   -2.9403 C.ar     1 ZINC000002159818   -0.0700
26     C26    -0.0517   -6.8164   -1.7802 C.ar     1 ZINC000002159818   -0.1400
27     H27     0.9996    1.9059   -0.1067 H        1 ZINC000002159818    0.0800
28     H28    -0.5479    1.8663   -0.9853 H        1 ZINC000002159818    0.0700
29     H29    -0.5355    1.9014    0.7943 H        1 ZINC000002159818    0.0700
30     H30     0.5123   -0.3750   -0.9485 H        1 ZINC000002159818    0.0700
31     H31     0.5247   -0.3399    0.8311 H        1 ZINC000002159818    0.0700
32     H32    -3.8686   -0.5276    0.1950 H        1 ZINC000002159818    0.1400
33     H33    -6.1196   -1.5078    0.2282 H        1 ZINC000002159818    0.1300
34     H34    -6.4157   -3.9435    0.0600 H        1 ZINC000002159818    0.1300
35     H35    -4.4646   -5.4211   -0.1417 H        1 ZINC000002159818    0.1300
36     H36    -1.0459   -4.2807   -0.1475 H        1 ZINC000002159818    0.4200
37     H37    -2.6908   -6.5082    0.4087 H        1 ZINC000002159818    0.0900
38     H38    -2.6762   -6.2475   -1.3520 H        1 ZINC000002159818    0.0900
39     H39    -0.7317   -7.3170    1.5298 H        1 ZINC000002159818    0.1700
40     H40     2.8707   -7.9959   -3.0461 H        1 ZINC000002159818    0.1600
41     H41     1.8783   -7.7741   -5.8549 H        1 ZINC000002159818    0.4000
42     H42    -0.9175   -6.3455   -5.7753 H        1 ZINC000002159818    0.3900
43     H43    -1.5392   -5.7441   -2.9133 H        1 ZINC000002159818    0.1500
@<TRIPOS>BOND
1     1     2     1
2     1     27    1
3     1     28    1
4     1     29    1
5     2     3     1
6     2     30    1
7     2     31    1
8     3     4     1
9     4     5     2
10    4     6     1
11    6     11    ar
12    6     7     ar
13    7     8     ar
14    7     32    1
15    8     9     ar
16    8     33    1
17    9     10    ar
18    9     34    1
19    10    11    ar
20    10    35    1
21    11    12    1
22    12    13    1
23    12    36    1
24    13    14    1
25    13    37    1
26    13    38    1
27    14    26    1
28    14    15    2
29    15    16    1
30    15    39    1
31    16    17    2
32    16    18    1
33    18    19    1
34    19    26    ar
35    19    20    ar
36    20    21    ar
37    20    40    1
38    21    22    1
39    21    23    ar
40    22    41    1
41    23    24    1
42    23    25    ar
43    24    42    1
44    25    26    ar
45    25    43    1
@<TRIPOS>SUBSTRUCTURE
1   ZINC000002159818 1     RESIDUE    1   A     ZIN   1


@<TRIPOS>MOLECULE
C1=C2C(=CC(=C1Cl)Cl)OC3=CC(=C(C=C3O2)Cl)Cl
  22   24    0    0    0
SMALL
USER_CHARGES
NO_NAME
@<TRIPOS>ATOM
    1 Cl1       0.0021    -0.0041     0.0020 Cl     1 <0>      -0.0200
    2 C2       -0.0215     1.7317     0.0116 C.ar   1 <0>      -0.0200
    3 C3       -1.2300     2.4064     0.0325 C.ar   1 <0>      -0.0800
    4 C4       -1.2495     3.7910     0.0406 C.ar   1 <0>       0.0700
    5 C5       -0.0534     4.5022     0.0276 C.ar   1 <0>       0.0700
    6 C6        1.1533     3.8232     0.0067 C.ar   1 <0>      -0.0800
    7 C7        1.1682     2.4389     0.0040 C.ar   1 <0>      -0.0200
    8 Cl8       2.6815     1.5887    -0.0222 Cl     1 <0>      -0.0200
    9 O9       -0.0705     5.8624     0.0351 O.3    1 <0>      -0.2300
   10 C10      -1.2573     6.5271     0.0545 C.ar   1 <0>       0.0700
   11 C11      -1.2775     7.9117     0.0610 C.ar   1 <0>      -0.0800
   12 C12      -2.4864     8.5858     0.0803 C.ar   1 <0>      -0.0200
   13 Cl13     -2.5106    10.3216     0.0879 Cl     1 <0>      -0.0200
   14 C14      -3.6758     7.8783     0.0933 C.ar   1 <0>      -0.0200
   15 Cl15     -5.1894     8.7281     0.1175 Cl     1 <0>      -0.0200
   16 C16      -3.6603     6.4941     0.0864 C.ar   1 <0>      -0.0800
   17 C17      -2.4533     5.8158     0.0675 C.ar   1 <0>       0.0700
   18 O18      -2.4362     4.4556     0.0607 O.3    1 <0>      -0.2300
   19 H19      -2.1575     1.8531     0.0422 H      1 <0>       0.1700
   20 H20       2.0826     4.3734    -0.0037 H      1 <0>       0.1700
   21 H21      -0.3503     8.4655     0.0513 H      1 <0>       0.1700
   22 H22      -4.5894     5.9435     0.0958 H      1 <0>       0.1700
@<TRIPOS>BOND
   1    1    2 1
   2    2    7 ar
   3    2    3 ar
   4    3    4 ar
   5    3   19 1
   6    4   18 1
   7    4    5 ar
   8    5    6 ar
   9    5    9 1
  10    6    7 ar
  11    6   20 1
  12    7    8 1
  13    9   10 1
  14   10   17 ar
  15   10   11 ar
  16   11   12 ar
  17   11   21 1
  18   12   13 1
  19   12   14 ar
  20   14   15 1
  21   14   16 ar
  22   16   17 ar
  23   16   22 1
  24   17   18 1


@<TRIPOS>MOLECULE
CC1=NN=C(O1)C2=CC3=C(C=C2)OC=C3C4=CC=C(C=C4)S(=O)C
38    41    1     0     0
SMALL
USER_CHARGES
@<TRIPOS>ATOM
1      C1     -0.0184    1.5028    0.0103 C.3      1 ZINC000058631630   -0.0600
2      C2      0.0021   -0.0041    0.0020 C.2      1 ZINC000058631630    0.1700
3      N3      0.0081   -0.7679   -1.0543 N.2      1 ZINC000058631630   -0.2800
4      N4      0.0264   -2.0024   -0.6924 N.2      1 ZINC000058631630   -0.2700
5      C5      0.0326   -2.0691    0.6184 C.2      1 ZINC000058631630    0.2100
6      C6      0.0531   -3.3021    1.4336 C.ar     1 ZINC000058631630   -0.0400
7      C7      0.0523   -3.2185    2.8307 C.ar     1 ZINC000058631630   -0.0600
8      C8      0.0711   -4.3491    3.5959 C.ar     1 ZINC000058631630   -0.1000
9      C9      0.0909   -5.6031    2.9943 C.ar     1 ZINC000058631630    0.0800
10     O10     0.1123   -6.8593    3.4848 O.3      1 ZINC000058631630   -0.1800
11     C11     0.1267   -7.7669    2.4948 C.2      1 ZINC000058631630    0.0400
12     C12     0.1154   -7.1421    1.2951 C.2      1 ZINC000058631630   -0.1400
13     C13     0.1243   -7.7787   -0.0438 C.ar     1 ZINC000058631630    0.0200
14     C14    -0.8033   -7.3904   -1.0093 C.ar     1 ZINC000058631630   -0.1200
15     C15    -0.7899   -7.9861   -2.2541 C.ar     1 ZINC000058631630   -0.0500
16     C16     0.1415   -8.9667   -2.5446 C.ar     1 ZINC000058631630   -0.4600
17     S17     0.1529   -9.7223   -4.1363 S.o      1 ZINC000058631630    1.3300
18     C18     1.2772   -8.6602   -5.0842 C.3      1 ZINC000058631630   -0.5000
19     O19    -1.1790   -9.5280   -4.5919 O.2      1 ZINC000058631630   -0.8500
20     C20     1.0645   -9.3560   -1.5905 C.ar     1 ZINC000058631630   -0.0400
21     C21     1.0640   -8.7637   -0.3441 C.ar     1 ZINC000058631630   -0.1300
22     C22     0.0915   -5.6979    1.5925 C.ar     1 ZINC000058631630   -0.1200
23     C23     0.0675   -4.5481    0.8125 C.ar     1 ZINC000058631630   -0.0100
24     O24     0.0232   -0.8036    1.0827 O.3      1 ZINC000058631630   -0.2200
25     H25     1.0042    1.8801    0.0026 H        1 ZINC000058631630    0.1000
26     H26    -0.5455    1.8639   -0.8728 H        1 ZINC000058631630    0.1100
27     H27    -0.5286    1.8543    0.9071 H        1 ZINC000058631630    0.1000
28     H28     0.0370   -2.2500    3.3082 H        1 ZINC000058631630    0.1500
29     H29     0.0709   -4.2695    4.6730 H        1 ZINC000058631630    0.1500
30     H30     0.1447   -8.8375    2.6359 H        1 ZINC000058631630    0.2200
31     H31    -1.5312   -6.6252   -0.7835 H        1 ZINC000058631630    0.1300
32     H32    -1.5083   -7.6864   -3.0027 H        1 ZINC000058631630    0.1300
33     H33     2.2603   -8.6602   -4.6135 H        1 ZINC000058631630    0.1100
34     H34     1.3621   -9.0387   -6.1029 H        1 ZINC000058631630    0.1100
35     H35     0.8847   -7.6436   -5.1059 H        1 ZINC000058631630    0.0800
36     H36     1.7894  -10.1221   -1.8229 H        1 ZINC000058631630    0.1400
37     H37     1.7852   -9.0681    0.3999 H        1 ZINC000058631630    0.1300
38     H38     0.0631   -4.6203   -0.2650 H        1 ZINC000058631630    0.1500
@<TRIPOS>BOND
1     1     2     1
2     1     25    1
3     1     26    1
4     1     27    1
5     2     24    1
6     2     3     2
7     3     4     1
8     4     5     2
9     5     6     1
10    5     24    1
11    6     23    ar
12    6     7     ar
13    7     8     ar
14    7     28    1
15    8     9     ar
16    8     29    1
17    9     22    ar
18    9     10    1
19    10    11    1
20    11    12    2
21    11    30    1
22    12    13    1
23    12    22    1
24    13    21    ar
25    13    14    ar
26    14    15    ar
27    14    31    1
28    15    16    ar
29    15    32    1
30    16    17    1
31    16    20    ar
32    17    18    1
33    17    19    2
34    18    33    1
35    18    34    1
36    18    35    1
37    20    21    ar
38    20    36    1
39    21    37    1
40    22    23    ar
41    23    38    1
@<TRIPOS>SUBSTRUCTURE
1   ZINC000058631630 1     RESIDUE    1   A     ZIN   1


@<TRIPOS>MOLECULE
C1COCCN1C2=CC(=O)C3=C(O2)C(=CC=C3)C4=CC=CC=C4
40    43    1     0     0
SMALL
USER_CHARGES
@<TRIPOS>ATOM
1      O1      0.0062    0.0118   -0.2718 O.2      1 ZINC000000006014   -0.4900
2      C2     -0.0122    1.2249   -0.1380 C.2      1 ZINC000000006014    0.4300
3      C3     -1.2251    1.9400   -0.1142 C.2      1 ZINC000000006014   -0.4000
4      C4     -1.2042    3.2940    0.0375 C.2      1 ZINC000000006014    0.4300
5      N5     -2.3949    3.9735    0.0588 N.pl3    1 ZINC000000006014   -0.6100
6      C6     -3.6101    3.3551    0.6120 C.3      1 ZINC000000006014    0.0900
7      C7     -4.2346    4.3303    1.6164 C.3      1 ZINC000000006014    0.0400
8      O8     -4.3988    5.6065    0.9936 O.3      1 ZINC000000006014   -0.3800
9      C9     -3.1739    6.2213    0.5868 C.3      1 ZINC000000006014    0.0500
10     C10    -2.4938    5.3450   -0.4652 C.3      1 ZINC000000006014    0.0800
11     O11    -0.0646    3.9867    0.1670 O.3      1 ZINC000000006014   -0.2400
12     C12     1.1457    3.3910    0.1564 C.ar     1 ZINC000000006014    0.1600
13     C13     2.3178    4.1433    0.2945 C.ar     1 ZINC000000006014   -0.0700
14     C14     2.2436    5.6158    0.4556 C.ar     1 ZINC000000006014   -0.0500
15     C15     1.4733    6.3775   -0.4213 C.ar     1 ZINC000000006014   -0.1000
16     C16     1.4075    7.7473   -0.2664 C.ar     1 ZINC000000006014   -0.1200
17     C17     2.1044    8.3644    0.7568 C.ar     1 ZINC000000006014   -0.1100
18     C18     2.8706    7.6135    1.6301 C.ar     1 ZINC000000006014   -0.1200
19     C19     2.9394    6.2425    1.4879 C.ar     1 ZINC000000006014   -0.1000
20     C20     3.5524    3.5031    0.2805 C.ar     1 ZINC000000006014   -0.0500
21     C21     3.6301    2.1295    0.1311 C.ar     1 ZINC000000006014   -0.1400
22     C22     2.4829    1.3758   -0.0065 C.ar     1 ZINC000000006014   -0.0300
23     C23     1.2370    2.0001    0.0115 C.ar     1 ZINC000000006014   -0.2100
24     H24    -2.1655    1.4189   -0.2158 H        1 ZINC000000006014    0.1500
25     H25    -4.3178    3.1530   -0.1921 H        1 ZINC000000006014    0.0900
26     H26    -3.3513    2.4241    1.1164 H        1 ZINC000000006014    0.1000
27     H27    -5.2063    3.9527    1.9346 H        1 ZINC000000006014    0.1100
28     H28    -3.5803    4.4294    2.4826 H        1 ZINC000000006014    0.0600
29     H29    -3.3825    7.2041    0.1642 H        1 ZINC000000006014    0.1100
30     H30    -2.5158    6.3272    1.4492 H        1 ZINC000000006014    0.0600
31     H31    -1.4969    5.7317   -0.6764 H        1 ZINC000000006014    0.1000
32     H32    -3.0877    5.3409   -1.3792 H        1 ZINC000000006014    0.0900
33     H33     0.9290    5.8967   -1.2207 H        1 ZINC000000006014    0.1200
34     H34     0.8112    8.3385   -0.9455 H        1 ZINC000000006014    0.1300
35     H35     2.0504    9.4367    0.8741 H        1 ZINC000000006014    0.1200
36     H36     3.4126    8.1006    2.4271 H        1 ZINC000000006014    0.1300
37     H37     3.5379    5.6572    2.1703 H        1 ZINC000000006014    0.1300
38     H38     4.4576    4.0826    0.3866 H        1 ZINC000000006014    0.1400
39     H39     4.5951    1.6445    0.1218 H        1 ZINC000000006014    0.1400
40     H40     2.5499    0.3042   -0.1230 H        1 ZINC000000006014    0.1400
@<TRIPOS>BOND
1     1     2     2
2     2     23    1
3     2     3     1
4     3     4     2
5     3     24    1
6     4     5     1
7     4     11    1
8     5     10    1
9     5     6     1
10    6     7     1
11    6     25    1
12    6     26    1
13    7     8     1
14    7     27    1
15    7     28    1
16    8     9     1
17    9     10    1
18    9     29    1
19    9     30    1
20    10    31    1
21    10    32    1
22    11    12    1
23    12    23    ar
24    12    13    ar
25    13    14    1
26    13    20    ar
27    14    19    ar
28    14    15    ar
29    15    16    ar
30    15    33    1
31    16    17    ar
32    16    34    1
33    17    18    ar
34    17    35    1
35    18    19    ar
36    18    36    1
37    19    37    1
38    20    21    ar
39    20    38    1
40    21    22    ar
41    21    39    1
42    22    23    ar
43    22    40    1
@<TRIPOS>SUBSTRUCTURE
1   ZINC000000006014 1     RESIDUE    1   A     ZIN   1


@<TRIPOS>MOLECULE
CCC(CO)NC1=NC(=C2C(=N1)N(C=N2)C(C)C)NCC3=CC=CC=C3
52    54    1     0     0
SMALL
USER_CHARGES
@<TRIPOS>ATOM
1      C1     -0.0187    1.5258    0.0104 C.3      1 ZINC000000602192   -0.1500
2      C2      0.0021   -0.0041    0.0020 C.3      1 ZINC000000602192   -0.1300
3      C3      0.7182   -0.4975   -1.2568 C.3      1 ZINC000000602192    0.1700
4      H4      1.7103   -0.0491   -1.3098 H        1 ZINC000000602192    0.1000
5      C5      0.8493   -2.0210   -1.2049 C.3      1 ZINC000000602192    0.0600
6      O6     -0.4420   -2.6041   -1.0184 O.3      1 ZINC000000602192   -0.5700
7      N7     -0.0549   -0.1139   -2.4405 N.pl3    1 ZINC000000602192   -0.6800
8      C8      0.5781    0.0318   -3.6639 C.ar     1 ZINC000000602192    0.6300
9      N9      1.8847   -0.1868   -3.7392 N.ar     1 ZINC000000602192   -0.6300
10     C10     2.5369   -0.0601   -4.8895 C.ar     1 ZINC000000602192    0.5400
11     N11     3.8995   -0.2906   -4.9584 N.pl3    1 ZINC000000602192   -0.6900
12     C12     4.6385   -0.6790   -3.7545 C.3      1 ZINC000000602192    0.1700
13     C13     6.0937   -0.8680   -4.0975 C.ar     1 ZINC000000602192   -0.1100
14     C14     6.5525   -2.1067   -4.5050 C.ar     1 ZINC000000602192   -0.1000
15     C15     7.8874   -2.2801   -4.8196 C.ar     1 ZINC000000602192   -0.1200
16     C16     8.7633   -1.2147   -4.7272 C.ar     1 ZINC000000602192   -0.1100
17     C17     8.3043    0.0242   -4.3206 C.ar     1 ZINC000000602192   -0.1200
18     C18     6.9686    0.1986   -4.0101 C.ar     1 ZINC000000602192   -0.1000
19     C19     1.8131    0.3127   -6.0351 C.ar     1 ZINC000000602192   -0.1600
20     N20     2.1344    0.5309   -7.3342 N.2      1 ZINC000000602192   -0.4500
21     C21     1.0643    0.8633   -7.9950 C.2      1 ZINC000000602192    0.2300
22     N22    -0.0135    0.8793   -7.1584 N.pl3    1 ZINC000000602192   -0.4700
23     C23    -1.3930    1.2055   -7.5281 C.3      1 ZINC000000602192    0.1300
24     C24    -1.4491    2.6303   -8.0827 C.3      1 ZINC000000602192   -0.1600
25     C25    -1.8810    0.2234   -8.5949 C.3      1 ZINC000000602192   -0.1600
26     C26     0.4318    0.5337   -5.9076 C.ar     1 ZINC000000602192    0.3500
27     N27    -0.1418    0.3790   -4.7185 N.ar     1 ZINC000000602192   -0.6200
28     H28     1.0039    1.9031    0.0027 H        1 ZINC000000602192    0.0500
29     H29    -0.5459    1.8868   -0.8726 H        1 ZINC000000602192    0.0600
30     H30    -0.5289    1.8773    0.9072 H        1 ZINC000000602192    0.0600
31     H31     0.5293   -0.3651    0.8851 H        1 ZINC000000602192    0.0800
32     H32    -1.0205   -0.3814    0.0098 H        1 ZINC000000602192    0.0800
33     H33     1.2788   -2.3807   -2.1399 H        1 ZINC000000602192    0.0500
34     H34     1.4980   -2.3018   -0.3753 H        1 ZINC000000602192    0.0500
35     H35    -0.4349   -3.5701   -0.9761 H        1 ZINC000000602192    0.3800
36     H36    -1.0102    0.0381   -2.3676 H        1 ZINC000000602192    0.4100
37     H37     4.3654   -0.1951   -5.8038 H        1 ZINC000000602192    0.4200
38     H38     4.5414    0.1023   -3.0007 H        1 ZINC000000602192    0.0800
39     H39     4.2328   -1.6126   -3.3646 H        1 ZINC000000602192    0.0800
40     H40     5.8681   -2.9391   -4.5772 H        1 ZINC000000602192    0.1200
41     H41     8.2460   -3.2481   -5.1372 H        1 ZINC000000602192    0.1200
42     H42     9.8063   -1.3504   -4.9723 H        1 ZINC000000602192    0.1200
43     H43     8.9887    0.8565   -4.2480 H        1 ZINC000000602192    0.1200
44     H44     6.6100    1.1665   -3.6924 H        1 ZINC000000602192    0.1200
45     H45     1.0336    1.0929   -9.0498 H        1 ZINC000000602192    0.2100
46     H46    -2.0319    1.1329   -6.6479 H        1 ZINC000000602192    0.1100
47     H47    -0.8102    2.7029   -8.9629 H        1 ZINC000000602192    0.0700
48     H48    -2.4755    2.8731   -8.3578 H        1 ZINC000000602192    0.0800
49     H49    -1.1014    3.3300   -7.3227 H        1 ZINC000000602192    0.0600
50     H50    -1.8411   -0.7917   -8.1997 H        1 ZINC000000602192    0.0600
51     H51    -2.9075    0.4661   -8.8699 H        1 ZINC000000602192    0.0800
52     H52    -1.2422    0.2960   -9.4750 H        1 ZINC000000602192    0.0700
@<TRIPOS>BOND
1     1     2     1
2     1     28    1
3     1     29    1
4     1     30    1
5     2     3     1
6     2     31    1
7     2     32    1
8     3     4     1
9     3     5     1
10    3     7     1
11    5     6     1
12    5     33    1
13    5     34    1
14    6     35    1
15    7     8     1
16    7     36    1
17    8     27    ar
18    8     9     ar
19    9     10    ar
20    10    11    1
21    10    19    ar
22    11    12    1
23    11    37    1
24    12    13    1
25    12    38    1
26    12    39    1
27    13    18    ar
28    13    14    ar
29    14    15    ar
30    14    40    1
31    15    16    ar
32    15    41    1
33    16    17    ar
34    16    42    1
35    17    18    ar
36    17    43    1
37    18    44    1
38    19    26    ar
39    19    20    1
40    20    21    2
41    21    22    1
42    21    45    1
43    22    23    1
44    22    26    1
45    23    24    1
46    23    25    1
47    23    46    1
48    24    47    1
49    24    48    1
50    24    49    1
51    25    50    1
52    25    51    1
53    25    52    1
54    26    27    ar
@<TRIPOS>SUBSTRUCTURE
1   ZINC000000602192 1     RESIDUE    1   A     ZIN   1


@<TRIPOS>MOLECULE
CC1=C(C)N=C(C)C(COC2=CC=C(/C=C3OC(C(Br)=C\3Br)=O)C=C2OC)=N1
46    48    1     0     0
SMALL
USER_CHARGES
@<TRIPOS>ATOM
1      C1     -0.0188    1.4266   -0.0668 C.3      1 ZINC000103229253    0.0200
2      O2      0.0014   -0.0022   -0.0578 O.3      1 ZINC000103229253   -0.3000
3      C3     -1.2012   -0.6365   -0.0266 C.ar     1 ZINC000103229253    0.1000
4      C4     -2.3687    0.0992   -0.0111 C.ar     1 ZINC000103229253   -0.1400
5      C5     -3.6062   -0.5581    0.0206 C.ar     1 ZINC000103229253   -0.1000
6      C6     -4.8510    0.2173    0.0367 C.2      1 ZINC000103229253    0.0200
7      C7     -6.0511   -0.4194   -0.0585 C.2      1 ZINC000103229253    0.0100
8      O8     -6.2418   -1.7617   -0.0651 O.3      1 ZINC000103229253   -0.2400
9      C9     -7.5597   -2.0157   -0.1719 C.2      1 ZINC000103229253    0.5100
10     O10    -8.0716   -3.1209   -0.2066 O.2      1 ZINC000103229253   -0.4100
11     C11    -8.2468   -0.7872   -0.2367 C.2      1 ZINC000103229253   -0.2100
12     Br12  -10.1173   -0.5569   -0.3916 Br       1 ZINC000103229253    0.0500
13     C13    -7.3153    0.2040   -0.1613 C.2      1 ZINC000103229253   -0.0100
14     Br14   -7.6501    2.0648   -0.1979 Br       1 ZINC000103229253    0.0500
15     C15    -3.6501   -1.9582    0.0363 C.ar     1 ZINC000103229253   -0.0700
16     C16    -2.4792   -2.6834    0.0206 C.ar     1 ZINC000103229253   -0.1800
17     C17    -1.2541   -2.0306   -0.0161 C.ar     1 ZINC000103229253    0.1400
18     O18    -0.1032   -2.7517   -0.0319 O.3      1 ZINC000103229253   -0.2900
19     C19    -0.2290   -4.1750   -0.0090 C.3      1 ZINC000103229253    0.1100
20     C20     1.1417   -4.8009   -0.0311 C.ar     1 ZINC000103229253    0.0600
21     N21     1.7191   -5.0863   -1.1847 N.ar     1 ZINC000103229253   -0.4100
22     C22     2.9211   -5.6352   -1.2040 C.ar     1 ZINC000103229253    0.0700
23     C23     3.5799   -5.9604   -2.5198 C.3      1 ZINC000103229253   -0.1000
24     C24     3.5749   -5.9109   -0.0164 C.ar     1 ZINC000103229253    0.1000
25     C25     4.9456   -6.5368   -0.0385 C.3      1 ZINC000103229253   -0.1100
26     N26     2.9976   -5.6250    1.1375 N.ar     1 ZINC000103229253   -0.4400
27     C27     1.7980   -5.0714    1.1568 C.ar     1 ZINC000103229253    0.1100
28     C28     1.1399   -4.7449    2.4726 C.3      1 ZINC000103229253   -0.1100
29     H29     1.0034    1.8042   -0.0923 H        1 ZINC000103229253    0.1000
30     H30    -0.5575    1.7768   -0.9473 H        1 ZINC000103229253    0.0600
31     H31    -0.5176    1.7887    0.8321 H        1 ZINC000103229253    0.0600
32     H32    -2.3289    1.1784   -0.0230 H        1 ZINC000103229253    0.1500
33     H33    -4.8159    1.2932    0.1241 H        1 ZINC000103229253    0.1700
34     H34    -4.6015   -2.4687    0.0611 H        1 ZINC000103229253    0.1500
35     H35    -2.5141   -3.7628    0.0328 H        1 ZINC000103229253    0.1400
36     H36    -0.7527   -4.4790    0.8973 H        1 ZINC000103229253    0.0900
37     H37    -0.7927   -4.5040   -0.8820 H        1 ZINC000103229253    0.0900
38     H38     4.1653   -5.1040   -2.8545 H        1 ZINC000103229253    0.0800
39     H39     4.2355   -6.8221   -2.3948 H        1 ZINC000103229253    0.0800
40     H40     2.8153   -6.1902   -3.2620 H        1 ZINC000103229253    0.0800
41     H41     5.7026   -5.7530   -0.0617 H        1 ZINC000103229253    0.0900
42     H42     5.0810   -7.1465    0.8548 H        1 ZINC000103229253    0.0800
43     H43     5.0444   -7.1637   -0.9247 H        1 ZINC000103229253    0.0900
44     H44     1.4116   -3.7332    2.7736 H        1 ZINC000103229253    0.0900
45     H45     0.0575   -4.8135    2.3643 H        1 ZINC000103229253    0.0800
46     H46     1.4746   -5.4520    3.2316 H        1 ZINC000103229253    0.0800
@<TRIPOS>BOND
1     1     2     1
2     1     29    1
3     1     30    1
4     1     31    1
5     2     3     1
6     3     17    ar
7     3     4     ar
8     4     5     ar
9     4     32    1
10    5     6     1
11    5     15    ar
12    6     7     2
13    6     33    1
14    7     13    1
15    7     8     1
16    8     9     1
17    9     10    2
18    9     11    1
19    11    12    1
20    11    13    2
21    13    14    1
22    15    16    ar
23    15    34    1
24    16    17    ar
25    16    35    1
26    17    18    1
27    18    19    1
28    19    20    1
29    19    36    1
30    19    37    1
31    20    27    ar
32    20    21    ar
33    21    22    ar
34    22    23    1
35    22    24    ar
36    23    38    1
37    23    39    1
38    23    40    1
39    24    25    1
40    24    26    ar
41    25    41    1
42    25    42    1
43    25    43    1
44    26    27    ar
45    27    28    1
46    28    44    1
47    28    45    1
48    28    46    1
@<TRIPOS>SUBSTRUCTURE
1   ZINC000103229253 1     RESIDUE    1   A     ZIN   1


@<TRIPOS>MOLECULE
CN1C2=CC=CC=C2N=C1N=NC3=C(N=C4N3C=CC5=CC=CC=C54)C6=CC=C(C=C6)OC
53    58    1     0     0
SMALL
USER_CHARGES
@<TRIPOS>ATOM
1      C1      0.0154    1.4399    0.0157 C.3      1 ZINC000008386970    0.0200
2      O2      0.0232    0.0110    0.0053 O.3      1 ZINC000008386970   -0.3100
3      C3      0.6223   -0.5948   -1.0525 C.ar     1 ZINC000008386970    0.1500
4      C4      1.1962    0.1739   -2.0572 C.ar     1 ZINC000008386970   -0.2200
5      C5      1.8050   -0.4371   -3.1320 C.ar     1 ZINC000008386970   -0.0300
6      C6      1.8449   -1.8304   -3.2101 C.ar     1 ZINC000008386970   -0.0800
7      C7      2.4979   -2.4902   -4.3621 C.2      1 ZINC000008386970    0.2400
8      C8      3.3027   -3.6353   -4.3114 C.2      1 ZINC000008386970    0.0800
9      N9      3.6279   -4.3409   -3.2215 N.2      1 ZINC000008386970   -0.0700
10     N10     4.4630   -5.3199   -3.3124 N.2      1 ZINC000008386970   -0.2800
11     C11     4.7148   -6.0956   -2.2347 C.2      1 ZINC000008386970    0.4200
12     N12     4.2363   -5.8929   -1.0264 N.2      1 ZINC000008386970   -0.4600
13     C13     4.6855   -6.8519   -0.1918 C.ar     1 ZINC000008386970    0.0500
14     C14     4.4894   -7.1073    1.1702 C.ar     1 ZINC000008386970   -0.0600
15     C15     5.0922   -8.1850    1.7544 C.ar     1 ZINC000008386970   -0.1300
16     C16     5.9001   -9.0336    1.0113 C.ar     1 ZINC000008386970   -0.0900
17     C17     6.1084   -8.8023   -0.3329 C.ar     1 ZINC000008386970   -0.1100
18     C18     5.5052   -7.7133   -0.9449 C.ar     1 ZINC000008386970    0.0600
19     N19     5.5041   -7.2184   -2.2353 N.pl3    1 ZINC000008386970   -0.4700
20     C20     6.2132   -7.7840   -3.3857 C.3      1 ZINC000008386970    0.0800
21     N21     3.6939   -3.8920   -5.6155 N.pl3    1 ZINC000008386970   -0.3800
22     C22     4.4806   -4.8807   -6.1453 C.2      1 ZINC000008386970    0.0700
23     C23     4.7499   -4.9638   -7.4568 C.2      1 ZINC000008386970   -0.1200
24     C24     4.1918   -3.9704   -8.3749 C.ar     1 ZINC000008386970   -0.0300
25     C25     4.4404   -4.0115   -9.7477 C.ar     1 ZINC000008386970   -0.1000
26     C26     3.8929   -3.0574  -10.5602 C.ar     1 ZINC000008386970   -0.0900
27     C27     3.0939   -2.0487  -10.0380 C.ar     1 ZINC000008386970   -0.1100
28     C28     2.8331   -1.9832   -8.6971 C.ar     1 ZINC000008386970   -0.0700
29     C29     3.3776   -2.9431   -7.8438 C.ar     1 ZINC000008386970   -0.0300
30     C30     3.1316   -2.9231   -6.3975 C.2      1 ZINC000008386970    0.3000
31     N31     2.4216   -2.1050   -5.6368 N.2      1 ZINC000008386970   -0.4700
32     C32     1.2674   -2.5996   -2.1982 C.ar     1 ZINC000008386970   -0.0300
33     C33     0.6647   -1.9814   -1.1241 C.ar     1 ZINC000008386970   -0.1500
34     H34     1.0410    1.8089    0.0092 H        1 ZINC000008386970    0.0600
35     H35    -0.5083    1.8068   -0.8671 H        1 ZINC000008386970    0.0600
36     H36    -0.4925    1.7940    0.9128 H        1 ZINC000008386970    0.1000
37     H37     1.1650    1.2517   -1.9961 H        1 ZINC000008386970    0.1300
38     H38     2.2504    0.1612   -3.9131 H        1 ZINC000008386970    0.1300
39     H39     3.8629   -6.4532    1.7584 H        1 ZINC000008386970    0.1300
40     H40     4.9385   -8.3783    2.8058 H        1 ZINC000008386970    0.1300
41     H41     6.3697   -9.8811    1.4886 H        1 ZINC000008386970    0.1300
42     H42     6.7380   -9.4665   -0.9062 H        1 ZINC000008386970    0.1200
43     H43     5.5399   -8.4351   -3.9433 H        1 ZINC000008386970    0.0800
44     H44     6.5573   -6.9773   -4.0329 H        1 ZINC000008386970    0.0900
45     H45     7.0699   -8.3605   -3.0368 H        1 ZINC000008386970    0.0900
46     H46     4.9006   -5.6216   -5.4812 H        1 ZINC000008386970    0.1700
47     H47     5.3755   -5.7597   -7.8331 H        1 ZINC000008386970    0.1600
48     H48     5.0608   -4.7908  -10.1652 H        1 ZINC000008386970    0.1400
49     H49     4.0848   -3.0886  -11.6225 H        1 ZINC000008386970    0.1300
50     H50     2.6732   -1.3059  -10.6996 H        1 ZINC000008386970    0.1400
51     H51     2.2100   -1.1945   -8.3019 H        1 ZINC000008386970    0.1400
52     H52     1.2964   -3.6777   -2.2552 H        1 ZINC000008386970    0.1400
53     H53     0.2180   -2.5757   -0.3407 H        1 ZINC000008386970    0.1400
@<TRIPOS>BOND
1     1     2     1
2     1     34    1
3     1     35    1
4     1     36    1
5     2     3     1
6     3     33    ar
7     3     4     ar
8     4     5     ar
9     4     37    1
10    5     6     ar
11    5     38    1
12    6     7     1
13    6     32    ar
14    7     31    1
15    7     8     2
16    8     9     1
17    8     21    1
18    9     10    2
19    10    11    1
20    11    19    1
21    11    12    2
22    12    13    1
23    13    18    ar
24    13    14    ar
25    14    15    ar
26    14    39    1
27    15    16    ar
28    15    40    1
29    16    17    ar
30    16    41    1
31    17    18    ar
32    17    42    1
33    18    19    1
34    19    20    1
35    20    43    1
36    20    44    1
37    20    45    1
38    21    30    1
39    21    22    1
40    22    23    2
41    22    46    1
42    23    24    1
43    23    47    1
44    24    29    ar
45    24    25    ar
46    25    26    ar
47    25    48    1
48    26    27    ar
49    26    49    1
50    27    28    ar
51    27    50    1
52    28    29    ar
53    28    51    1
54    29    30    1
55    30    31    2
56    32    33    ar
57    32    52    1
58    33    53    1
@<TRIPOS>SUBSTRUCTURE
1   ZINC000008386970 1     RESIDUE    1   A     ZIN   1


@<TRIPOS>MOLECULE
CCOC1=CC=C(C=C1)NC(=O)CN2C(=O)C(=CC3=CC=C(O3)C4=C(C(=CC=C4)C(=O)O)C)SC2=O
57    60    1     0     0
SMALL
USER_CHARGES
@<TRIPOS>ATOM
1      C1     -2.1012    0.8714    2.2850 C.3      1 ZINC000008451792   -0.1500
2      C2     -2.2335   -0.6478    2.1609 C.3      1 ZINC000008451792    0.0500
3      O3     -1.4004   -1.1132    1.0972 O.3      1 ZINC000008451792   -0.3200
4      C4     -1.4014   -2.4507    0.8524 C.ar     1 ZINC000008451792    0.1200
5      C5     -2.1928   -3.2950    1.6174 C.ar     1 ZINC000008451792   -0.1900
6      C6     -2.1943   -4.6534    1.3693 C.ar     1 ZINC000008451792   -0.0800
7      C7     -1.4037   -5.1741    0.3535 C.ar     1 ZINC000008451792    0.1100
8      N8     -1.4050   -6.5522    0.1010 N.am     1 ZINC000008451792   -0.6600
9      C9     -2.5336   -7.2681    0.2748 C.2      1 ZINC000008451792    0.5100
10     O10    -3.5707   -6.7062    0.5578 O.2      1 ZINC000008451792   -0.5100
11     C11    -2.5071   -8.7667    0.1178 C.3      1 ZINC000008451792    0.0800
12     N12    -3.8481   -9.3064    0.3558 N.am     1 ZINC000008451792   -0.5500
13     C13    -4.2276   -9.6653    1.5907 C.2      1 ZINC000008451792    0.5400
14     O14    -3.5645   -9.5988    2.6084 O.2      1 ZINC000008451792   -0.4400
15     S15    -5.8928  -10.2559    1.4391 S.3      1 ZINC000008451792   -0.0200
16     C16    -5.9747   -9.9770   -0.3117 C.2      1 ZINC000008451792   -0.2600
17     C17    -7.0248  -10.2184   -1.1492 C.2      1 ZINC000008451792    0.1200
18     C18    -6.8592  -10.0872   -2.5448 C.2      1 ZINC000008451792   -0.0700
19     C19    -7.8111  -10.3740   -3.5072 C.2      1 ZINC000008451792   -0.1200
20     C20    -7.2256  -10.1014   -4.7462 C.2      1 ZINC000008451792   -0.2300
21     C21    -5.9544   -9.6635   -4.5034 C.2      1 ZINC000008451792    0.1100
22     C22    -4.9728   -9.2616   -5.5299 C.ar     1 ZINC000008451792   -0.0700
23     C23    -4.7213  -10.0954   -6.6235 C.ar     1 ZINC000008451792   -0.1000
24     C24    -3.8030   -9.7213   -7.5845 C.ar     1 ZINC000008451792   -0.1400
25     C25    -3.1273   -8.5227   -7.4738 C.ar     1 ZINC000008451792   -0.0800
26     C26    -3.3686   -7.6780   -6.3857 C.ar     1 ZINC000008451792   -0.1200
27     C27    -2.6456   -6.3968   -6.2693 C.2      1 ZINC000008451792    0.5300
28     O28    -3.2656   -5.3599   -6.0795 O.co2    1 ZINC000008451792   -0.6800
29     O29    -1.4266   -6.3720   -6.3625 O.co2    1 ZINC000008451792   -0.6900
30     C30    -4.2982   -8.0466   -5.4142 C.ar     1 ZINC000008451792   -0.0200
31     C31    -4.5641   -7.1419   -4.2387 C.3      1 ZINC000008451792   -0.1100
32     O32    -5.7465   -9.6542   -3.1744 O.3      1 ZINC000008451792   -0.0900
33     C33    -4.7035   -9.4417   -0.6429 C.2      1 ZINC000008451792    0.5400
34     O34    -4.4139   -9.1312   -1.7844 O.2      1 ZINC000008451792   -0.4200
35     C35    -0.6122   -4.3284   -0.4121 C.ar     1 ZINC000008451792   -0.1000
36     C36    -0.6153   -2.9696   -0.1660 C.ar     1 ZINC000008451792   -0.1300
37     H37    -2.7366    1.2264    3.0963 H        1 ZINC000008451792    0.0800
38     H38    -1.0636    1.1297    2.4964 H        1 ZINC000008451792    0.0700
39     H39    -2.4092    1.3404    1.3505 H        1 ZINC000008451792    0.0700
40     H40    -1.9255   -1.1168    3.0954 H        1 ZINC000008451792    0.0600
41     H41    -3.2711   -0.9061    1.9494 H        1 ZINC000008451792    0.0600
42     H42    -2.8077   -2.8898    2.4074 H        1 ZINC000008451792    0.1300
43     H43    -2.8099   -5.3107    1.9654 H        1 ZINC000008451792    0.1300
44     H44    -0.5937   -6.9911   -0.1991 H        1 ZINC000008451792    0.4100
45     H45    -2.1874   -9.0205   -0.8929 H        1 ZINC000008451792    0.1400
46     H46    -1.8099   -9.1952    0.8378 H        1 ZINC000008451792    0.1300
47     H47    -7.9826  -10.5100   -0.7442 H        1 ZINC000008451792    0.1700
48     H48    -8.8128  -10.7388   -3.3342 H        1 ZINC000008451792    0.1600
49     H49    -7.6907  -10.2154   -5.7142 H        1 ZINC000008451792    0.1600
50     H50    -5.2463  -11.0346   -6.7167 H        1 ZINC000008451792    0.1200
51     H51    -3.6123  -10.3699   -8.4268 H        1 ZINC000008451792    0.1200
52     H52    -2.4102   -8.2368   -8.2290 H        1 ZINC000008451792    0.1200
53     H53    -5.4111   -6.4937   -4.4633 H        1 ZINC000008451792    0.0600
54     H54    -4.7914   -7.7453   -3.3599 H        1 ZINC000008451792    0.0800
55     H55    -3.6820   -6.5323   -4.0426 H        1 ZINC000008451792    0.0700
56     H56     0.0030   -4.7328   -1.2023 H        1 ZINC000008451792    0.1400
57     H57     0.0000   -2.3117   -0.7617 H        1 ZINC000008451792    0.1400
@<TRIPOS>BOND
1     1     2     1
2     1     37    1
3     1     38    1
4     1     39    1
5     2     3     1
6     2     40    1
7     2     41    1
8     3     4     1
9     4     36    ar
10    4     5     ar
11    5     6     ar
12    5     42    1
13    6     7     ar
14    6     43    1
15    7     8     1
16    7     35    ar
17    8     9     am
18    8     44    1
19    9     10    2
20    9     11    1
21    11    12    1
22    11    45    1
23    11    46    1
24    12    33    am
25    12    13    am
26    13    14    2
27    13    15    1
28    15    16    1
29    16    17    2
30    16    33    1
31    17    18    1
32    17    47    1
33    18    32    1
34    18    19    2
35    19    20    1
36    19    48    1
37    20    21    2
38    20    49    1
39    21    22    1
40    21    32    1
41    22    30    ar
42    22    23    ar
43    23    24    ar
44    23    50    1
45    24    25    ar
46    24    51    1
47    25    26    ar
48    25    52    1
49    26    27    1
50    26    30    ar
51    27    28    ar
52    27    29    ar
53    30    31    1
54    31    53    1
55    31    54    1
56    31    55    1
57    33    34    2
58    35    36    ar
59    35    56    1
60    36    57    1
@<TRIPOS>SUBSTRUCTURE
1   ZINC000008451792 1     RESIDUE    1   A     ZIN   1


@<TRIPOS>MOLECULE
CN1C2=C(C(=O)N(C1=O)C)N(C=N2)CC(=O)NC3=CC=CC=C3C(=O)N
  42   44    0    0    0
SMALL
USER_CHARGES
NO_NAME
@<TRIPOS>ATOM
    1 C1       -0.0624     1.4588    -0.0330 C.3    1 <0>       0.0900
    2 N2       -0.0425    -0.0060    -0.0433 N.am   1 <0>      -0.5100
    3 C3       -1.2333    -0.7140    -0.0238 C.2    1 <0>       0.3200
    4 C4       -1.1881    -2.1025    -0.0341 C.2    1 <0>      -0.1400
    5 C5        0.0661    -2.7495    -0.0640 C.2    1 <0>       0.5900
    6 O6        0.1318    -3.9656    -0.0740 O.2    1 <0>      -0.5100
    7 N7        1.1912    -2.0050    -0.0819 N.am   1 <0>      -0.5500
    8 C8        2.4961    -2.6702    -0.1130 C.3    1 <0>       0.0800
    9 C9        1.1327    -0.6621    -0.0772 C.2    1 <0>       0.7100
   10 O10       2.1675    -0.0237    -0.0942 O.2    1 <0>      -0.5300
   11 N11      -2.4999    -2.5318    -0.0103 N.pl3  1 <0>      -0.4000
   12 C12      -2.9620    -3.9221    -0.0095 C.3    1 <0>       0.0900
   13 C13      -2.9744    -4.4465     1.4032 C.2    1 <0>       0.5100
   14 O14      -2.6311    -3.7296     2.3192 O.2    1 <0>      -0.5000
   15 N15      -3.3670    -5.7122     1.6488 N.am   1 <0>      -0.6500
   16 C16      -3.2911    -6.2267     2.9410 C.ar   1 <0>       0.2100
   17 C17      -3.5357    -5.4065     4.0337 C.ar   1 <0>      -0.1300
   18 C18      -3.4595    -5.9184     5.3137 C.ar   1 <0>      -0.0700
   19 C19      -3.1398    -7.2506     5.5181 C.ar   1 <0>      -0.1400
   20 C20      -2.8941    -8.0800     4.4449 C.ar   1 <0>      -0.0700
   21 C21      -2.9727    -7.5779     3.1442 C.ar   1 <0>      -0.1700
   22 C22      -2.7110    -8.4602     1.9912 C.2    1 <0>       0.5700
   23 N23      -2.5032    -9.7777     2.1843 N.am   1 <0>      -0.8500
   24 O24      -2.6828    -7.9987     0.8666 O.2    1 <0>      -0.5500
   25 C25      -3.2746    -1.4297     0.0129 C.2    1 <0>       0.2800
   26 N26      -2.5207    -0.3601     0.0048 N.2    1 <0>      -0.4900
   27 H27       0.9600     1.8362    -0.0562 H      1 <0>       0.1000
   28 H28      -0.6033     1.8210    -0.9073 H      1 <0>       0.0800
   29 H29      -0.5585     1.8091     0.8721 H      1 <0>       0.0800
   30 H30       2.7988    -2.8282    -1.1481 H      1 <0>       0.0800
   31 H31       3.2344    -2.0457     0.3902 H      1 <0>       0.1000
   32 H32       2.4261    -3.6315     0.3959 H      1 <0>       0.0900
   33 H33      -3.9690    -3.9705    -0.4239 H      1 <0>       0.1400
   34 H34      -2.2898    -4.5287    -0.6164 H      1 <0>       0.1400
   35 H35      -3.7025    -6.2649     0.9256 H      1 <0>       0.4300
   36 H36      -3.7856    -4.3667     3.8826 H      1 <0>       0.1500
   37 H37      -3.6499    -5.2761     6.1608 H      1 <0>       0.1300
   38 H38      -3.0823    -7.6412     6.5233 H      1 <0>       0.1300
   39 H39      -2.6452    -9.1180     4.6097 H      1 <0>       0.1300
   40 H40      -2.5257   -10.1459     3.0815 H      1 <0>       0.4000
   41 H41      -2.3311   -10.3578     1.4262 H      1 <0>       0.4100
   42 H42      -4.3543    -1.4292     0.0344 H      1 <0>       0.2300
@<TRIPOS>BOND
   1    1    2 1
   2    1   27 1
   3    1   28 1
   4    1   29 1
   5    2    9 am
   6    2    3 1
   7    3   26 1
   8    3    4 2
   9    4    5 1
  10    4   11 1
  11    5    6 2
  12    5    7 am
  13    7    8 1
  14    7    9 am
  15    8   30 1
  16    8   31 1
  17    8   32 1
  18    9   10 2
  19   11   12 1
  20   11   25 1
  21   12   13 1
  22   12   33 1
  23   12   34 1
  24   13   14 2
  25   13   15 am
  26   15   16 1
  27   15   35 1
  28   16   21 ar
  29   16   17 ar
  30   17   18 ar
  31   17   36 1
  32   18   19 ar
  33   18   37 1
  34   19   20 ar
  35   19   38 1
  36   20   21 ar
  37   20   39 1
  38   21   22 1
  39   22   23 am
  40   22   24 2
  41   23   40 1
  42   23   41 1
  43   25   26 2
  44   25   42 1


@<TRIPOS>MOLECULE
C1=CC=C2C(=C1)C(=O)NC(=N2)CC3=CSC4=C3C=C(C=C4)Cl
33    36    1     0     0
SMALL
USER_CHARGES
@<TRIPOS>ATOM
1      O1      0.0021   -0.0041    0.0020 O.2      1 ZINC000008691822   -0.5100
2      C2     -0.0144    1.2130    0.0087 C.2      1 ZINC000008691822    0.5500
3      N3     -1.1802    1.9003    0.0292 N.am     1 ZINC000008691822   -0.6500
4      C4     -1.1823    3.2589    0.0364 C.2      1 ZINC000008691822    0.3900
5      C5     -2.5100    3.9715    0.0599 C.3      1 ZINC000008691822   -0.0200
6      C6     -2.2806    5.4609    0.0644 C.2      1 ZINC000008691822   -0.0600
7      C7     -2.2464    6.1701    1.1751 C.2      1 ZINC000008691822   -0.1700
8      S8     -1.9622    7.8674    0.8420 S.3      1 ZINC000008691822    0.1100
9      C9     -1.8885    7.5844   -0.8928 C.ar     1 ZINC000008691822   -0.1400
10     C10    -1.6798    8.4754   -1.9496 C.ar     1 ZINC000008691822   -0.0700
11     C11    -1.6624    8.0220   -3.2472 C.ar     1 ZINC000008691822   -0.1000
12     C12    -1.8521    6.6727   -3.5182 C.ar     1 ZINC000008691822   -0.0300
13     Cl13   -1.8282    6.1112   -5.1607 Cl       1 ZINC000008691822   -0.0600
14     C14    -2.0577    5.7810   -2.4957 C.ar     1 ZINC000008691822   -0.0700
15     C15    -2.0741    6.2244   -1.1557 C.ar     1 ZINC000008691822   -0.0400
16     N16    -0.0993    3.9748    0.0245 N.2      1 ZINC000008691822   -0.5000
17     C17     1.1309    3.4032    0.0037 C.ar     1 ZINC000008691822    0.1500
18     C18     2.2958    4.1724   -0.0096 C.ar     1 ZINC000008691822   -0.1100
19     C19     3.5239    3.5498   -0.0312 C.ar     1 ZINC000008691822   -0.0700
20     C20     3.6190    2.1646   -0.0404 C.ar     1 ZINC000008691822   -0.1400
21     C21     2.4835    1.3839   -0.0276 C.ar     1 ZINC000008691822   -0.0400
22     C22     1.2316    1.9940    0.0010 C.ar     1 ZINC000008691822   -0.2000
23     H23    -2.0220    1.4184    0.0386 H        1 ZINC000008691822    0.4200
24     H24    -3.0863    3.6953   -0.8231 H        1 ZINC000008691822    0.1100
25     H25    -3.0598    3.6859    0.9567 H        1 ZINC000008691822    0.1200
26     H26    -2.3772    5.7577    2.1646 H        1 ZINC000008691822    0.1700
27     H27    -1.5317    9.5256   -1.7455 H        1 ZINC000008691822    0.1400
28     H28    -1.5012    8.7167   -4.0583 H        1 ZINC000008691822    0.1400
29     H29    -2.2042    4.7342   -2.7171 H        1 ZINC000008691822    0.1300
30     H30     2.2341    5.2506   -0.0033 H        1 ZINC000008691822    0.1400
31     H31     4.4241    4.1463   -0.0414 H        1 ZINC000008691822    0.1400
32     H32     4.5914    1.6950   -0.0581 H        1 ZINC000008691822    0.1300
33     H33     2.5638    0.3070   -0.0348 H        1 ZINC000008691822    0.1400
@<TRIPOS>BOND
1     1     2     2
2     2     22    1
3     2     3     am
4     3     4     1
5     3     23    1
6     4     5     1
7     4     16    2
8     5     6     1
9     5     24    1
10    5     25    1
11    6     15    1
12    6     7     2
13    7     8     1
14    7     26    1
15    8     9     1
16    9     15    ar
17    9     10    ar
18    10    11    ar
19    10    27    1
20    11    12    ar
21    11    28    1
22    12    13    1
23    12    14    ar
24    14    15    ar
25    14    29    1
26    16    17    1
27    17    22    ar
28    17    18    ar
29    18    19    ar
30    18    30    1
31    19    20    ar
32    19    31    1
33    20    21    ar
34    20    32    1
35    21    22    ar
36    21    33    1
@<TRIPOS>SUBSTRUCTURE
1   ZINC000008691822 1     RESIDUE    1   A     ZIN   1


@<TRIPOS>MOLECULE
CC1=CC=C(C=C1)S(=O)(=O)NN=CC2=CNC3=CC=CC=C32
37    39    1     0     0
SMALL
USER_CHARGES
@<TRIPOS>ATOM
1      C1     -0.0184    1.5028    0.0103 C.3      1 ZINC000000242740   -0.1300
2      C2      0.0021   -0.0041    0.0020 C.ar     1 ZINC000000242740   -0.0300
3      C3      0.0057   -0.6887   -1.1989 C.ar     1 ZINC000000242740   -0.1400
4      C4      0.0245   -2.0709   -1.2065 C.ar     1 ZINC000000242740   -0.0200
5      C5      0.0400   -2.7685   -0.0132 C.ar     1 ZINC000000242740   -0.6800
6      S6      0.0633   -4.5303   -0.0229 S.o2     1 ZINC000000242740    2.7200
7      O7     -0.4690   -4.9455    1.2275 O.2      1 ZINC000000242740   -0.9400
8      O8     -0.4824   -4.9319   -1.2719 O.2      1 ZINC000000242740   -0.9500
9      N9      1.6514   -4.9995   -0.0340 N.am     1 ZINC000000242740   -0.9700
10     N10     2.5007   -4.6218    1.0143 N.2      1 ZINC000000242740   -0.2400
11     C11     3.7454   -4.9895    1.0057 C.2      1 ZINC000000242740    0.1700
12     C12     4.6387   -4.5924    2.1082 C.2      1 ZINC000000242740   -0.1500
13     C13     5.9577   -4.8946    2.2337 C.2      1 ZINC000000242740    0.1100
14     N14     6.4466   -4.3511    3.3869 N.pl3    1 ZINC000000242740   -0.5900
15     C15     5.4495   -3.6717    4.0533 C.ar     1 ZINC000000242740    0.0900
16     C16     5.4181   -2.9563    5.2461 C.ar     1 ZINC000000242740   -0.1300
17     C17     4.2434   -2.3720    5.6664 C.ar     1 ZINC000000242740   -0.1000
18     C18     3.0854   -2.4890    4.9108 C.ar     1 ZINC000000242740   -0.1400
19     C19     3.0955   -3.1930    3.7270 C.ar     1 ZINC000000242740   -0.0600
20     C20     4.2776   -3.7848    3.2864 C.ar     1 ZINC000000242740   -0.0800
21     C21     0.0378   -2.0839    1.1877 C.ar     1 ZINC000000242740    0.0000
22     C22     0.0229   -0.7016    1.1953 C.ar     1 ZINC000000242740   -0.1400
23     H23     1.0042    1.8801    0.0026 H        1 ZINC000000242740    0.0800
24     H24    -0.5455    1.8639   -0.8728 H        1 ZINC000000242740    0.0700
25     H25    -0.5286    1.8543    0.9071 H        1 ZINC000000242740    0.0700
26     H26    -0.0064   -0.1436   -2.1312 H        1 ZINC000000242740    0.1300
27     H27     0.0266   -2.6057   -2.1448 H        1 ZINC000000242740    0.1400
28     H28     1.9937   -5.5357   -0.7662 H        1 ZINC000000242740    0.4000
29     H29     4.1264   -5.5866    0.1904 H        1 ZINC000000242740    0.1300
30     H30     6.5320   -5.4770    1.5284 H        1 ZINC000000242740    0.1800
31     H31     7.3634   -4.4320    3.6932 H        1 ZINC000000242740    0.4200
32     H32     6.3135   -2.8594    5.8421 H        1 ZINC000000242740    0.1200
33     H33     4.2234   -1.8179    6.5932 H        1 ZINC000000242740    0.1300
34     H34     2.1716   -2.0261    5.2528 H        1 ZINC000000242740    0.1200
35     H35     2.1926   -3.2827    3.1413 H        1 ZINC000000242740    0.1300
36     H36     0.0503   -2.6289    2.1200 H        1 ZINC000000242740    0.1400
37     H37     0.0211   -0.1667    2.1335 H        1 ZINC000000242740    0.1300
@<TRIPOS>BOND
1     1     2     1
2     1     23    1
3     1     24    1
4     1     25    1
5     2     22    ar
6     2     3     ar
7     3     4     ar
8     3     26    1
9     4     5     ar
10    4     27    1
11    5     6     1
12    5     21    ar
13    6     7     2
14    6     8     2
15    6     9     am
16    9     10    1
17    9     28    1
18    10    11    2
19    11    12    1
20    11    29    1
21    12    20    1
22    12    13    2
23    13    14    1
24    13    30    1
25    14    15    1
26    14    31    1
27    15    20    ar
28    15    16    ar
29    16    17    ar
30    16    32    1
31    17    18    ar
32    17    33    1
33    18    19    ar
34    18    34    1
35    19    20    ar
36    19    35    1
37    21    22    ar
38    21    36    1
39    22    37    1
@<TRIPOS>SUBSTRUCTURE
1   ZINC000000242740 1     RESIDUE    1   A     ZIN   1


@<TRIPOS>MOLECULE
CC1=C2C(C3=C(CC(CC3=O)(C)C)NC2=NN1)C4=CC=CC=C4
  44   47    0    0    0
SMALL
USER_CHARGES
NO_NAME
@<TRIPOS>ATOM
    1 C1       -0.0184     1.5028     0.0103 C.3    1 <0>      -0.1000
    2 C2        0.0021    -0.0041     0.0020 C.2    1 <0>       0.1300
    3 C3        0.0079    -0.7889    -1.0855 C.2    1 <0>      -0.2500
    4 C4        0.0320    -2.1348    -0.6499 C.2    1 <0>       0.3100
    5 N5        0.0364    -2.1413     0.6494 N.2    1 <0>      -0.3100
    6 N6        0.0238    -0.8080     1.0908 N.pl3  1 <0>      -0.4700
    7 N7        0.0506    -3.1835    -1.5748 N.pl3  1 <0>      -0.6200
    8 C8        0.3436    -2.8957    -2.8843 C.2    1 <0>       0.2500
    9 C9        0.3449    -1.6392    -3.3773 C.2    1 <0>      -0.2900
   10 C10       0.6782    -1.3939    -4.7226 C.2    1 <0>       0.4100
   11 O11       0.6628    -0.2515    -5.1374 O.2    1 <0>      -0.4700
   12 C12       1.0529    -2.5072    -5.6590 C.3    1 <0>      -0.1600
   13 C13       1.6715    -3.6508    -4.8477 C.3    1 <0>      -0.0500
   14 C14       1.9724    -4.8340    -5.7699 C.3    1 <0>      -0.1400
   15 C15       2.9642    -3.1722    -4.1838 C.3    1 <0>      -0.1500
   16 C16       0.6664    -4.0748    -3.7758 C.3    1 <0>      -0.0900
   17 C17      -0.0085    -0.4262    -2.5433 C.3    1 <0>       0.1100
   18 H18       0.7184     0.3648    -2.7280 H      1 <0>       0.0900
   19 C19      -1.3840     0.0589    -2.9222 C.ar   1 <0>      -0.0600
   20 C20      -2.4766    -0.7746    -2.7721 C.ar   1 <0>      -0.1100
   21 C21      -3.7383    -0.3296    -3.1197 C.ar   1 <0>      -0.1200
   22 C22      -3.9076     0.9490    -3.6170 C.ar   1 <0>      -0.1300
   23 C23      -2.8152     1.7828    -3.7664 C.ar   1 <0>      -0.1200
   24 C24      -1.5540     1.3393    -3.4147 C.ar   1 <0>      -0.1000
   25 H25       1.0042     1.8801     0.0026 H      1 <0>       0.0900
   26 H26      -0.5455     1.8639    -0.8728 H      1 <0>       0.0900
   27 H27      -0.5286     1.8543     0.9071 H      1 <0>       0.0800
   28 H28       0.0247    -0.5144     2.0153 H      1 <0>       0.4400
   29 H29      -0.1390    -4.0933    -1.2971 H      1 <0>       0.4200
   30 H30       0.1621    -2.8658    -6.1748 H      1 <0>       0.1000
   31 H31       1.7772    -2.1432    -6.3877 H      1 <0>       0.1000
   32 H32       2.6720    -4.5216    -6.5452 H      1 <0>       0.0600
   33 H33       2.4120    -5.6448    -5.1890 H      1 <0>       0.0600
   34 H34       1.0475    -5.1784    -6.2325 H      1 <0>       0.0600
   35 H35       2.7438    -2.3364    -3.5198 H      1 <0>       0.0600
   36 H36       3.4006    -3.9884    -3.6080 H      1 <0>       0.0600
   37 H37       3.6691    -2.8510    -4.9506 H      1 <0>       0.0600
   38 H38       1.0940    -4.8775    -3.1749 H      1 <0>       0.0900
   39 H39      -0.2469    -4.4282    -4.2545 H      1 <0>       0.1000
   40 H40      -2.3443    -1.7735    -2.3835 H      1 <0>       0.1100
   41 H41      -4.5918    -0.9810    -3.0030 H      1 <0>       0.1200
   42 H42      -4.8933     1.2964    -3.8893 H      1 <0>       0.1200
   43 H43      -2.9475     2.7816    -4.1553 H      1 <0>       0.1200
   44 H44      -0.7006     1.9908    -3.5314 H      1 <0>       0.1200
@<TRIPOS>BOND
   1    1    2 1
   2    1   25 1
   3    1   26 1
   4    1   27 1
   5    2    6 1
   6    2    3 2
   7    3   17 1
   8    3    4 1
   9    4    5 2
  10    4    7 1
  11    5    6 1
  12    6   28 1
  13    7    8 1
  14    7   29 1
  15    8   16 1
  16    8    9 2
  17    9   10 1
  18    9   17 1
  19   10   11 2
  20   10   12 1
  21   12   13 1
  22   12   30 1
  23   12   31 1
  24   13   14 1
  25   13   15 1
  26   13   16 1
  27   14   32 1
  28   14   33 1
  29   14   34 1
  30   15   35 1
  31   15   36 1
  32   15   37 1
  33   16   38 1
  34   16   39 1
  35   17   18 1
  36   17   19 1
  37   19   24 ar
  38   19   20 ar
  39   20   21 ar
  40   20   40 1
  41   21   22 ar
  42   21   41 1
  43   22   23 ar
  44   22   42 1
  45   23   24 ar
  46   23   43 1
  47   24   44 1


@<TRIPOS>MOLECULE
CC1=C2C(C3=C(CC(CC3=O)(C)C)NC2=NN1)C4=CC=CC=C4OC
48    51    1     0     0
SMALL
USER_CHARGES
@<TRIPOS>ATOM
1      C1     -0.0173    1.4248    0.0099 C.3      1 ZINC000006995453    0.0300
2      O2      0.0021   -0.0041    0.0020 O.3      1 ZINC000006995453   -0.3000
3      C3      0.6058   -0.6071   -1.0557 C.ar     1 ZINC000006995453    0.1400
4      C4      1.1729    0.1605   -2.0622 C.ar     1 ZINC000006995453   -0.2100
5      C5      1.7865   -0.4550   -3.1363 C.ar     1 ZINC000006995453   -0.0800
6      C6      1.8352   -1.8346   -3.2086 C.ar     1 ZINC000006995453   -0.1600
7      C7      1.2701   -2.6022   -2.2066 C.ar     1 ZINC000006995453   -0.0700
8      C8      0.6609   -1.9917   -1.1277 C.ar     1 ZINC000006995453   -0.0900
9      C9      0.0458   -2.8287   -0.0359 C.3      1 ZINC000006995453    0.1100
10     H10    -0.3832   -2.1750    0.7235 H        1 ZINC000006995453    0.1000
11     C11     1.1051   -3.6916    0.5885 C.2      1 ZINC000006995453   -0.2500
12     C12     2.1059   -3.3677    1.4207 C.2      1 ZINC000006995453    0.1300
13     C13     2.4093   -1.9906    1.9520 C.3      1 ZINC000006995453   -0.1000
14     N14     2.7940   -4.4999    1.6983 N.pl3    1 ZINC000006995453   -0.4800
15     N15     2.1866   -5.5610    1.0070 N.2      1 ZINC000006995453   -0.3100
16     C16     1.1760   -5.0834    0.3447 C.2      1 ZINC000006995453    0.3100
17     N17     0.2430   -5.7094   -0.4880 N.pl3    1 ZINC000006995453   -0.6200
18     C18    -0.9042   -5.0282   -0.8103 C.2      1 ZINC000006995453    0.2500
19     C19    -1.0437   -3.7002   -0.6234 C.2      1 ZINC000006995453   -0.2900
20     C20    -2.2368   -3.0440   -0.9806 C.2      1 ZINC000006995453    0.4000
21     O21    -2.3352   -1.8478   -0.7891 O.2      1 ZINC000006995453   -0.4600
22     C22    -3.3913   -3.7850   -1.5931 C.3      1 ZINC000006995453   -0.1600
23     C23    -2.8506   -4.9968   -2.3601 C.3      1 ZINC000006995453   -0.0500
24     C24    -4.0158   -5.8174   -2.9165 C.3      1 ZINC000006995453   -0.1400
25     C25    -1.9574   -4.5240   -3.5088 C.3      1 ZINC000006995453   -0.1500
26     C26    -2.0340   -5.8509   -1.3897 C.3      1 ZINC000006995453   -0.0900
27     H27     1.0053    1.8021    0.0021 H        1 ZINC000006995453    0.0500
28     H28    -0.5445    1.7859   -0.8732 H        1 ZINC000006995453    0.0500
29     H29    -0.5275    1.7763    0.9067 H        1 ZINC000006995453    0.1000
30     H30     1.1346    1.2384   -2.0066 H        1 ZINC000006995453    0.1300
31     H31     2.2283    0.1423   -3.9203 H        1 ZINC000006995453    0.1200
32     H32     2.3149   -2.3139   -4.0491 H        1 ZINC000006995453    0.1200
33     H33     1.3091   -3.6799   -2.2655 H        1 ZINC000006995453    0.1200
34     H34     1.8694   -1.8343    2.8859 H        1 ZINC000006995453    0.0900
35     H35     3.4805   -1.8984    2.1318 H        1 ZINC000006995453    0.0700
36     H36     2.0977   -1.2429    1.2226 H        1 ZINC000006995453    0.0900
37     H37     3.5716   -4.5666    2.2742 H        1 ZINC000006995453    0.4400
38     H38     0.4028   -6.6030   -0.8297 H        1 ZINC000006995453    0.4200
39     H39    -4.0672   -4.1221   -0.8072 H        1 ZINC000006995453    0.1000
40     H40    -3.9250   -3.1271   -2.2790 H        1 ZINC000006995453    0.1000
41     H41    -4.6073   -5.1979   -3.5906 H        1 ZINC000006995453    0.0600
42     H42    -3.6269   -6.6779   -3.4610 H        1 ZINC000006995453    0.0600
43     H43    -4.6434   -6.1611   -2.0942 H        1 ZINC000006995453    0.0600
44     H44    -1.1230   -3.9489   -3.1073 H        1 ZINC000006995453    0.0600
45     H45    -1.5752   -5.3886   -4.0514 H        1 ZINC000006995453    0.0600
46     H46    -2.5378   -3.8975   -4.1862 H        1 ZINC000006995453    0.0600
47     H47    -1.6231   -6.7097   -1.9203 H        1 ZINC000006995453    0.0900
48     H48    -2.6785   -6.1989   -0.5825 H        1 ZINC000006995453    0.1000
@<TRIPOS>BOND
1     1     2     1
2     1     27    1
3     1     28    1
4     1     29    1
5     2     3     1
6     3     8     ar
7     3     4     ar
8     4     5     ar
9     4     30    1
10    5     6     ar
11    5     31    1
12    6     7     ar
13    6     32    1
14    7     8     ar
15    7     33    1
16    8     9     1
17    9     10    1
18    9     19    1
19    9     11    1
20    11    16    1
21    11    12    2
22    12    13    1
23    12    14    1
24    13    34    1
25    13    35    1
26    13    36    1
27    14    15    1
28    14    37    1
29    15    16    2
30    16    17    1
31    17    18    1
32    17    38    1
33    18    26    1
34    18    19    2
35    19    20    1
36    20    21    2
37    20    22    1
38    22    23    1
39    22    39    1
40    22    40    1
41    23    24    1
42    23    25    1
43    23    26    1
44    24    41    1
45    24    42    1
46    24    43    1
47    25    44    1
48    25    45    1
49    25    46    1
50    26    47    1
51    26    48    1
@<TRIPOS>SUBSTRUCTURE
1   ZINC000006995453 1     RESIDUE    1   A     ZIN   1


@<TRIPOS>MOLECULE
C1=CC=C(C=C1)N2C3=C(C=N2)C4=C(C5=CC=CN53)C(=O)NC4=O
33    37    1     0     0
SMALL
USER_CHARGES
@<TRIPOS>ATOM
1      O1      0.0045    0.0943    1.0123 O.2      1 ZINC000001612517   -0.4400
2      C2     -0.0125    1.2843    0.7699 C.2      1 ZINC000001612517    0.5900
3      N3     -1.1159    2.0371    0.6009 N.am     1 ZINC000001612517   -0.6800
4      C4     -0.7838    3.3166    0.3460 C.2      1 ZINC000001612517    0.5800
5      O5     -1.5642    4.2268    0.1502 O.2      1 ZINC000001612517   -0.4500
6      C6      0.6842    3.4274    0.3450 C.2      1 ZINC000001612517   -0.0500
7      C7      1.1713    2.1495    0.6173 C.2      1 ZINC000001612517   -0.1000
8      C8      2.6109    1.9366    0.6830 C.2      1 ZINC000001612517    0.0800
9      C9      3.3724    0.8076    0.9284 C.2      1 ZINC000001612517   -0.1400
10     C10     4.7132    1.1949    0.8682 C.2      1 ZINC000001612517   -0.1400
11     C11     4.7535    2.5212    0.5938 C.2      1 ZINC000001612517   -0.0300
12     N12     3.4786    2.9905    0.4775 N.pl3    1 ZINC000001612517   -0.3500
13     C13     3.0052    4.2578    0.2083 C.2      1 ZINC000001612517    0.3200
14     C14     1.6376    4.5167    0.1379 C.2      1 ZINC000001612517   -0.1700
15     C15     1.4864    5.8915   -0.1496 C.2      1 ZINC000001612517    0.1200
16     N16     2.6729    6.4240   -0.2458 N.2      1 ZINC000001612517   -0.2500
17     N17     3.6419    5.4384   -0.0267 N.pl3    1 ZINC000001612517   -0.3200
18     C18     5.0295    5.6324   -0.0489 C.ar     1 ZINC000001612517    0.1300
19     C19     5.5941    6.6981    0.6391 C.ar     1 ZINC000001612517   -0.0900
20     C20     6.9622    6.8864    0.6156 C.ar     1 ZINC000001612517   -0.1000
21     C21     7.7695    6.0147   -0.0920 C.ar     1 ZINC000001612517   -0.1000
22     C22     7.2101    4.9526   -0.7785 C.ar     1 ZINC000001612517   -0.1000
23     C23     5.8433    4.7558   -0.7542 C.ar     1 ZINC000001612517   -0.1300
24     H24    -2.0250    1.7034    0.6550 H        1 ZINC000001612517    0.4400
25     H25     3.0001   -0.1862    1.1289 H        1 ZINC000001612517    0.1600
26     H26     5.5675    0.5506    1.0146 H        1 ZINC000001612517    0.1600
27     H27     5.6512    3.1118    0.4849 H        1 ZINC000001612517    0.1800
28     H28     0.5481    6.4128   -0.2693 H        1 ZINC000001612517    0.2100
29     H29     4.9641    7.3794    1.1916 H        1 ZINC000001612517    0.1400
30     H30     7.4019    7.7154    1.1503 H        1 ZINC000001612517    0.1400
31     H31     8.8390    6.1640   -0.1088 H        1 ZINC000001612517    0.1400
32     H32     7.8431    4.2740   -1.3309 H        1 ZINC000001612517    0.1400
33     H33     5.4070    3.9262   -1.2907 H        1 ZINC000001612517    0.1300
@<TRIPOS>BOND
1     1     2     2
2     2     7     1
3     2     3     am
4     3     4     am
5     3     24    1
6     4     5     2
7     4     6     1
8     6     14    1
9     6     7     2
10    7     8     1
11    8     12    1
12    8     9     2
13    9     10    1
14    9     25    1
15    10    11    2
16    10    26    1
17    11    12    1
18    11    27    1
19    12    13    1
20    13    17    1
21    13    14    2
22    14    15    1
23    15    16    2
24    15    28    1
25    16    17    1
26    17    18    1
27    18    23    ar
28    18    19    ar
29    19    20    ar
30    19    29    1
31    20    21    ar
32    20    30    1
33    21    22    ar
34    21    31    1
35    22    23    ar
36    22    32    1
37    23    33    1
@<TRIPOS>SUBSTRUCTURE
1   ZINC000001612517 1     RESIDUE    1   A     ZIN   1


@<TRIPOS>MOLECULE
CN1C(=O)C=C(N=C1N2CCOC(C2)C3=C(C=C(C=C3)C#N)F)C4=NC=NC=C4
  46   49    0    0    0
SMALL
USER_CHARGES
NO_NAME
@<TRIPOS>ATOM
    1 C1       -1.6939     0.8458     0.3991 C.3    1 <0>       0.0500
    2 N2       -0.8104    -0.3043     0.1919 N.am   1 <0>      -0.5400
    3 C3       -0.9015    -1.0277    -0.9438 C.2    1 <0>       0.5300
    4 O4       -1.7152    -0.7334    -1.8040 O.2    1 <0>      -0.5300
    5 C5       -0.0416    -2.1262    -1.1180 C.2    1 <0>      -0.2600
    6 C6        0.8668    -2.4240    -0.1162 C.2    1 <0>       0.2400
    7 C7        1.7904    -3.5762    -0.2664 C.ar   1 <0>       0.2100
    8 C8        2.7057    -3.8878     0.7405 C.ar   1 <0>      -0.1800
    9 C9        3.5454    -4.9739     0.5514 C.ar   1 <0>       0.1500
   10 N10       3.4525    -5.6735    -0.5676 N.ar   1 <0>      -0.5100
   11 C11       2.5764    -5.3525    -1.4996 C.ar   1 <0>       0.3000
   12 N12       1.7559    -4.3329    -1.3611 N.ar   1 <0>      -0.5000
   13 N13       0.9092    -1.6680     0.9886 N.2    1 <0>      -0.5600
   14 C14       0.1044    -0.6379     1.1422 C.2    1 <0>       0.6400
   15 N15       0.1821     0.1079     2.2883 N.pl3  1 <0>      -0.6100
   16 C16       0.0395     1.5720     2.2505 C.3    1 <0>       0.0800
   17 C17       1.2163     2.1923     3.0123 C.3    1 <0>       0.0500
   18 O18       1.3043     1.5962     4.3087 O.3    1 <0>      -0.3700
   19 C19       1.5689     0.1914     4.2903 C.3    1 <0>       0.1200
   20 H20       2.4948     0.0024     3.7472 H      1 <0>       0.0900
   21 C21       1.7022    -0.3142     5.7037 C.ar   1 <0>      -0.1000
   22 C22       1.0812     0.3616     6.7383 C.ar   1 <0>      -0.0600
   23 C23       1.1989    -0.0956     8.0348 C.ar   1 <0>      -0.0800
   24 C24       1.9470    -1.2435     8.3027 C.ar   1 <0>       0.0100
   25 C25       2.0722    -1.7228     9.6463 C.1    1 <0>       0.2500
   26 N26       2.1715    -2.1030    10.7122 N.1    1 <0>      -0.4000
   27 C27       2.5722    -1.9225     7.2551 C.ar   1 <0>      -0.1100
   28 C28       2.4420    -1.4578     5.9605 C.ar   1 <0>       0.1200
   29 F29       3.0458    -2.1128     4.9448 F      1 <0>      -0.1300
   30 C30       0.4045    -0.5318     3.5947 C.3    1 <0>       0.1100
   31 H31      -1.1908     1.7546     0.0690 H      1 <0>       0.0800
   32 H32      -2.6099     0.7084    -0.1754 H      1 <0>       0.1000
   33 H33      -1.9383     0.9300     1.4580 H      1 <0>       0.0900
   34 H34      -0.0888    -2.7261    -2.0148 H      1 <0>       0.1700
   35 H35       2.7584    -3.2975     1.6434 H      1 <0>       0.1600
   36 H36       4.2668    -5.2456     1.3078 H      1 <0>       0.1700
   37 H37       2.5284    -5.9457    -2.4009 H      1 <0>       0.2000
   38 H38       0.0500     1.9153     1.2160 H      1 <0>       0.1000
   39 H39      -0.8983     1.8619     2.7245 H      1 <0>       0.0900
   40 H40       2.1409     2.0105     2.4645 H      1 <0>       0.0600
   41 H41       1.0582     3.2658     3.1151 H      1 <0>       0.1200
   42 H42       0.5028     1.2498     6.5308 H      1 <0>       0.1500
   43 H43       0.7134     0.4340     8.8411 H      1 <0>       0.1400
   44 H44       3.1524    -2.8111     7.4556 H      1 <0>       0.1500
   45 H45      -0.4944    -0.4528     4.2061 H      1 <0>       0.0900
   46 H46       0.6589    -1.5817     3.4491 H      1 <0>       0.1100
@<TRIPOS>BOND
   1    1    2 1
   2    1   31 1
   3    1   32 1
   4    1   33 1
   5    2   14 1
   6    2    3 am
   7    3    4 2
   8    3    5 1
   9    5    6 2
  10    5   34 1
  11    6    7 1
  12    6   13 1
  13    7   12 ar
  14    7    8 ar
  15    8    9 ar
  16    8   35 1
  17    9   10 ar
  18    9   36 1
  19   10   11 ar
  20   11   12 ar
  21   11   37 1
  22   13   14 2
  23   14   15 1
  24   15   30 1
  25   15   16 1
  26   16   17 1
  27   16   38 1
  28   16   39 1
  29   17   18 1
  30   17   40 1
  31   17   41 1
  32   18   19 1
  33   19   20 1
  34   19   21 1
  35   19   30 1
  36   21   28 ar
  37   21   22 ar
  38   22   23 ar
  39   22   42 1
  40   23   24 ar
  41   23   43 1
  42   24   25 1
  43   24   27 ar
  44   25   26 3
  45   27   28 ar
  46   27   44 1
  47   28   29 1
  48   30   45 1
  49   30   46 1


@<TRIPOS>MOLECULE
C1=CN=CC=C1CCCNC2=CC(=CN3C2=NNC3=O)Cl
  35   37    0    0    0
SMALL
USER_CHARGES
NO_NAME
@<TRIPOS>ATOM
    1 O1        0.0021    -0.0041     0.0020 O.2    1 <0>      -0.5300
    2 C2       -0.0145     1.2149     0.0087 C.2    1 <0>       0.6500
    3 N3       -1.1159     1.9943     0.0293 N.am   1 <0>      -0.5200
    4 N4       -0.6888     3.3295     0.0300 N.2    1 <0>      -0.2700
    5 C5        0.6220     3.3324     0.0104 C.2    1 <0>       0.2800
    6 C6        1.6073     4.4184     0.0014 C.2    1 <0>       0.2500
    7 N7        1.1971     5.7522     0.0151 N.pl3  1 <0>      -0.7200
    8 C8        2.1943     6.8254     0.0059 C.3    1 <0>       0.1200
    9 C9        1.4849     8.1809     0.0243 C.3    1 <0>      -0.1300
   10 C10       2.5264     9.3017     0.0146 C.3    1 <0>      -0.0800
   11 C11       1.8276    10.6368     0.0327 C.ar   1 <0>      -0.0400
   12 C12       1.4753    11.2695    -1.1496 C.ar   1 <0>      -0.1700
   13 C13       0.8356    12.4933    -1.0938 C.ar   1 <0>       0.1000
   14 N14       0.5608    13.0585     0.0655 N.ar   1 <0>      -0.4900
   15 C15       0.8811    12.4859     1.2094 C.ar   1 <0>       0.1000
   16 C16       1.5168    11.2589     1.2322 C.ar   1 <0>      -0.1700
   17 C17       2.9320     4.0985    -0.0201 C.2    1 <0>      -0.1900
   18 C18       3.3242     2.7448    -0.0332 C.2    1 <0>      -0.0300
   19 Cl19      5.0141     2.3484    -0.0601 Cl     1 <0>      -0.0300
   20 C20       2.4158     1.7554    -0.0248 C.2    1 <0>       0.0700
   21 N21       1.0645     2.0232     0.0028 N.am   1 <0>      -0.4600
   22 H22      -2.0357     1.6866     0.0409 H      1 <0>       0.4700
   23 H23       0.2517     5.9687     0.0308 H      1 <0>       0.4100
   24 H24       2.8315     6.7368     0.8857 H      1 <0>       0.0700
   25 H25       2.8044     6.7467    -0.8940 H      1 <0>       0.0700
   26 H26       0.8477     8.2694    -0.8556 H      1 <0>       0.0800
   27 H27       0.8749     8.2595     0.9241 H      1 <0>       0.0800
   28 H28       3.1636     9.2131     0.8945 H      1 <0>       0.0800
   29 H29       3.1364     9.2230    -0.8853 H      1 <0>       0.0800
   30 H30       1.6982    10.8120    -2.1022 H      1 <0>       0.1400
   31 H31       0.5578    12.9927    -2.0102 H      1 <0>       0.1600
   32 H32       0.6401    12.9795     2.1393 H      1 <0>       0.1600
   33 H33       1.7762    10.7948     2.1722 H      1 <0>       0.1400
   34 H34       3.6782     4.8792    -0.0275 H      1 <0>       0.1500
   35 H35       2.7515     0.7289    -0.0357 H      1 <0>       0.1800
@<TRIPOS>BOND
   1    1    2 2
   2    2   21 am
   3    2    3 am
   4    3    4 1
   5    3   22 1
   6    4    5 2
   7    5   21 1
   8    5    6 1
   9    6    7 1
  10    6   17 2
  11    7    8 1
  12    7   23 1
  13    8    9 1
  14    8   24 1
  15    8   25 1
  16    9   10 1
  17    9   26 1
  18    9   27 1
  19   10   11 1
  20   10   28 1
  21   10   29 1
  22   11   16 ar
  23   11   12 ar
  24   12   13 ar
  25   12   30 1
  26   13   14 ar
  27   13   31 1
  28   14   15 ar
  29   15   16 ar
  30   15   32 1
  31   16   33 1
  32   17   18 1
  33   17   34 1
  34   18   19 1
  35   18   20 2
  36   20   21 1
  37   20   35 1


@<TRIPOS>MOLECULE
CC(C1=CC2=C(C=C1)C=C(C=C2)OC)C(=O)O
  30   31    0    0    0
SMALL
USER_CHARGES
NO_NAME
@<TRIPOS>ATOM
    1 C1       -0.0173     1.4248     0.0099 C.3    1 <0>       0.0300
    2 O2        0.0021    -0.0041     0.0020 O.3    1 <0>      -0.3200
    3 C3        0.6257    -0.6183     1.0414 C.ar   1 <0>       0.1100
    4 C4        1.2032     0.1543     2.0534 C.ar   1 <0>      -0.2000
    5 C5        1.8343    -0.4314     3.1064 C.ar   1 <0>      -0.0700
    6 C6        1.9088    -1.8329     3.1825 C.ar   1 <0>      -0.0700
    7 C7        2.5526    -2.4710     4.2564 C.ar   1 <0>      -0.1200
    8 C8        2.6059    -3.8303     4.2985 C.ar   1 <0>      -0.0200
    9 C9        3.2968    -4.5105     5.4522 C.3    1 <0>      -0.1400
   10 H10       3.6837    -3.7577     6.1389 H      1 <0>       0.0700
   11 C11       4.4533    -5.3615     4.9240 C.3    1 <0>      -0.1200
   12 C12       2.3135    -5.3933     6.1767 C.2    1 <0>       0.5000
   13 O13       1.1588    -5.4636     5.7919 O.co2  1 <0>      -0.6900
   14 O14       2.6728    -6.0373     7.1476 O.co2  1 <0>      -0.7000
   15 C15       2.0307    -4.6027     3.2910 C.ar   1 <0>      -0.0500
   16 C16       1.3990    -4.0202     2.2358 C.ar   1 <0>      -0.1300
   17 C17       1.3236    -2.6185     2.1577 C.ar   1 <0>      -0.0200
   18 C18       0.6754    -1.9827     1.0866 C.ar   1 <0>      -0.1500
   19 H19       1.0053     1.8021     0.0021 H      1 <0>       0.0500
   20 H20      -0.5445     1.7859    -0.8732 H      1 <0>       0.0900
   21 H21      -0.5275     1.7763     0.9067 H      1 <0>       0.0500
   22 H22       1.1478     1.2315     1.9981 H      1 <0>       0.1200
   23 H23       2.2765     0.1779     3.8807 H      1 <0>       0.1300
   24 H24       3.0032    -1.8856     5.0443 H      1 <0>       0.1200
   25 H25       4.9531    -5.8535     5.7584 H      1 <0>       0.0600
   26 H26       4.0664    -6.1143     4.2372 H      1 <0>       0.0500
   27 H27       5.1645    -4.7230     4.3999 H      1 <0>       0.0400
   28 H28       2.0874    -5.6797     3.3484 H      1 <0>       0.1200
   29 H29       0.9578    -4.6314     1.4624 H      1 <0>       0.1200
   30 H30       0.2217    -2.5690     0.3011 H      1 <0>       0.1300
@<TRIPOS>BOND
   1    1    2 1
   2    1   19 1
   3    1   20 1
   4    1   21 1
   5    2    3 1
   6    3   18 ar
   7    3    4 ar
   8    4    5 ar
   9    4   22 1
  10    5    6 ar
  11    5   23 1
  12    6   17 ar
  13    6    7 ar
  14    7    8 ar
  15    7   24 1
  16    8    9 1
  17    8   15 ar
  18    9   10 1
  19    9   11 1
  20    9   12 1
  21   11   25 1
  22   11   26 1
  23   11   27 1
  24   12   13 ar
  25   12   14 ar
  26   15   16 ar
  27   15   28 1
  28   16   17 ar
  29   16   29 1
  30   17   18 ar
  31   18   30 1


@<TRIPOS>MOLECULE
C1=CC2=C(C(=C1)OCC(COC3=CC=CC4=C3C(=O)C=C(O4)C(=O)O)O)C(=O)C=C(O2)C(=O)O
  48   51    0    0    0
SMALL
USER_CHARGES
NO_NAME
@<TRIPOS>ATOM
    1 O1        0.0021    -0.0041     0.0020 O.co2  1 <0>      -0.6400
    2 C2       -0.0145     1.2181     0.0087 C.2    1 <0>       0.5400
    3 O3        1.0356     1.8435     0.0021 O.co2  1 <0>      -0.6500
    4 C4       -1.3067     1.9409     0.0188 C.2    1 <0>       0.0800
    5 C5       -2.4534     1.2199     0.0259 C.2    1 <0>      -0.2900
    6 C6       -3.7366     1.9498     0.0197 C.2    1 <0>       0.4200
    7 O7       -4.7962     1.3945     0.2499 O.2    1 <0>      -0.4500
    8 C8       -3.6593     3.3901    -0.2811 C.ar   1 <0>      -0.2600
    9 C9       -4.8051     4.1406    -0.5682 C.ar   1 <0>       0.2100
   10 O10      -6.0280     3.5528    -0.5639 O.3    1 <0>      -0.2700
   11 C11      -7.1491     4.3855    -0.8669 C.3    1 <0>       0.0300
   12 C12      -8.4317     3.5531    -0.8141 C.3    1 <0>       0.1100
   13 O13      -8.6494     3.0977     0.5229 O.3    1 <0>      -0.5300
   14 C14      -9.6165     4.4129    -1.2592 C.3    1 <0>       0.0300
   15 O15     -10.7940     3.6056    -1.3217 O.3    1 <0>      -0.2700
   16 C16     -11.9422     4.2197    -1.7030 C.ar   1 <0>       0.2100
   17 C17     -11.9429     5.5682    -2.0175 C.ar   1 <0>      -0.2600
   18 C18     -13.1180     6.1923    -2.4028 C.ar   1 <0>      -0.0200
   19 C19     -14.3028     5.4894    -2.4768 C.ar   1 <0>      -0.1900
   20 C20     -14.3315     4.1352    -2.1651 C.ar   1 <0>       0.1900
   21 C21     -13.1365     3.4951    -1.7880 C.ar   1 <0>      -0.2600
   22 C22     -13.1876     2.0545    -1.4829 C.2    1 <0>       0.4200
   23 O23     -12.2619     1.4759    -0.9421 O.2    1 <0>      -0.4500
   24 C24     -14.4280     1.3543    -1.8712 C.2    1 <0>      -0.2900
   25 C25     -15.5014     2.1015    -2.2238 C.2    1 <0>       0.0800
   26 C26     -16.7452     1.4088    -2.6305 C.2    1 <0>       0.5400
   27 O27     -16.7883     0.1874    -2.6431 O.co2  1 <0>      -0.6400
   28 O28     -17.7289     2.0584    -2.9536 O.co2  1 <0>      -0.6500
   29 O29     -15.4839     3.4410    -2.2251 O.3    1 <0>      -0.2000
   30 C30      -4.6785     5.4891    -0.8563 C.ar   1 <0>      -0.2600
   31 C31      -3.4284     6.0860    -0.8574 C.ar   1 <0>      -0.0200
   32 C32      -2.2938     5.3555    -0.5707 C.ar   1 <0>      -0.1900
   33 C33      -2.3919     4.0011    -0.2748 C.ar   1 <0>       0.1900
   34 O34      -1.2926     3.2815     0.0260 O.3    1 <0>      -0.2000
   35 H35      -2.4296     0.1402     0.0355 H      1 <0>       0.1700
   36 H36      -7.2097     5.1930    -0.1372 H      1 <0>       0.0700
   37 H37      -7.0299     4.8063    -1.8653 H      1 <0>       0.0800
   38 H38      -8.3355     2.6948    -1.4791 H      1 <0>       0.1200
   39 H39      -8.7444     3.8097     1.1703 H      1 <0>       0.3700
   40 H40      -9.7677     5.2213    -0.5439 H      1 <0>       0.0700
   41 H41      -9.4110     4.8327    -2.2439 H      1 <0>       0.0800
   42 H42     -11.0251     6.1349    -1.9618 H      1 <0>       0.1300
   43 H43     -13.1067     7.2440    -2.6484 H      1 <0>       0.1400
   44 H44     -15.2100     5.9925    -2.7772 H      1 <0>       0.1400
   45 H45     -14.4781     0.2755    -1.8743 H      1 <0>       0.1700
   46 H46      -5.5563     6.0768    -1.0809 H      1 <0>       0.1300
   47 H47      -3.3408     7.1378    -1.0863 H      1 <0>       0.1400
   48 H48      -1.3271     5.8372    -0.5762 H      1 <0>       0.1400
@<TRIPOS>BOND
   1    1    2 ar
   2    2    3 ar
   3    2    4 1
   4    4   34 1
   5    4    5 2
   6    5    6 1
   7    5   35 1
   8    6    7 2
   9    6    8 1
  10    8   33 ar
  11    8    9 ar
  12    9   10 1
  13    9   30 ar
  14   10   11 1
  15   11   12 1
  16   11   36 1
  17   11   37 1
  18   12   13 1
  19   12   14 1
  20   12   38 1
  21   13   39 1
  22   14   15 1
  23   14   40 1
  24   14   41 1
  25   15   16 1
  26   16   21 ar
  27   16   17 ar
  28   17   18 ar
  29   17   42 1
  30   18   19 ar
  31   18   43 1
  32   19   20 ar
  33   19   44 1
  34   20   29 1
  35   20   21 ar
  36   21   22 1
  37   22   23 2
  38   22   24 1
  39   24   25 2
  40   24   45 1
  41   25   26 1
  42   25   29 1
  43   26   27 ar
  44   26   28 ar
  45   30   31 ar
  46   30   46 1
  47   31   32 ar
  48   31   47 1
  49   32   33 ar
  50   32   48 1
  51   33   34 1


@<TRIPOS>MOLECULE
CN1C=C(C2=CC=CC=C21)C3=C(C(=O)NC3=O)C4=CN(C5=CC=CC=C54)CCCSC(=N)N
  57   61    0    0    0
SMALL
USER_CHARGES
NO_NAME
@<TRIPOS>ATOM
    1 C1       -0.0178     1.4608     0.0101 C.3    1 <0>       0.0800
    2 N2        0.0021    -0.0041     0.0020 N.pl3  1 <0>      -0.4800
    3 C3        0.0078    -0.7756    -1.1193 C.2    1 <0>       0.1000
    4 C4        0.0272    -2.0937    -0.7697 C.2    1 <0>      -0.1400
    5 C5        0.0390    -3.2475    -1.6846 C.2    1 <0>      -0.0200
    6 C6        1.1165    -3.7121    -2.4297 C.2    1 <0>      -0.0400
    7 C7        2.4773    -3.1505    -2.4636 C.2    1 <0>      -0.1200
    8 C8        3.4356    -3.2757    -1.5013 C.2    1 <0>       0.0900
    9 N9        4.5635    -2.6200    -1.8895 N.pl3  1 <0>      -0.4800
   10 C10       5.7982    -2.5416    -1.1049 C.3    1 <0>       0.1200
   11 C11       5.8029    -1.2469    -0.2896 C.3    1 <0>      -0.1300
   12 C12       7.0924    -1.1650     0.5299 C.3    1 <0>      -0.1400
   13 S13       7.0980     0.3666     1.4944 S.3    1 <0>       0.0800
   14 C14       8.6482     0.2049     2.3163 C.cat  1 <0>       0.4800
   15 N15       9.3426     1.2929     2.6494 N.pl3  1 <0>      -0.7400
   16 N16       9.1265    -1.0054     2.6049 N.pl3  1 <0>      -0.7600
   17 H17       9.9799    -1.0944     3.0573 H      1 <0>       0.4300
   18 H18       8.6212    -1.7971     2.3625 H      1 <0>       0.4400
   19 C19       4.3781    -2.0403    -3.1275 C.ar   1 <0>       0.1000
   20 C20       5.1971    -1.2767    -3.9524 C.ar   1 <0>      -0.1300
   21 C21       4.7226    -0.8253    -5.1651 C.ar   1 <0>      -0.0900
   22 C22       3.4315    -1.1244    -5.5747 C.ar   1 <0>      -0.1400
   23 C23       2.6043    -1.8791    -4.7716 C.ar   1 <0>      -0.0700
   24 C24       3.0730    -2.3482    -3.5466 C.ar   1 <0>      -0.0800
   25 C25       0.6203    -4.8839    -3.1806 C.2    1 <0>       0.5600
   26 O26       1.2740    -5.5635    -3.9466 O.2    1 <0>      -0.4500
   27 N27      -0.6746    -5.0727    -2.8750 N.am   1 <0>      -0.6900
   28 C28      -1.0904    -4.1494    -1.9916 C.2    1 <0>       0.5500
   29 O29      -2.2107    -4.0648    -1.5293 O.2    1 <0>      -0.4400
   30 C30       0.0340    -2.1368     0.7032 C.ar   1 <0>      -0.0800
   31 C31       0.0519    -3.1678     1.6397 C.ar   1 <0>      -0.0700
   32 C32       0.0535    -2.8677     2.9846 C.ar   1 <0>      -0.1400
   33 C33       0.0369    -1.5466     3.4072 C.ar   1 <0>      -0.1000
   34 C34       0.0190    -0.5165     2.4917 C.ar   1 <0>      -0.1300
   35 C35       0.0236    -0.7983     1.1297 C.ar   1 <0>       0.0900
   36 H36       1.0048     1.8381     0.0023 H      1 <0>       0.0700
   37 H37      -0.5450     1.8219    -0.8730 H      1 <0>       0.0900
   38 H38      -0.5280     1.8123     0.9069 H      1 <0>       0.0900
   39 H39      -0.0015    -0.4009    -2.1322 H      1 <0>       0.1700
   40 H40       3.3174    -3.8134    -0.5721 H      1 <0>       0.1700
   41 H41       5.8549    -3.3959    -0.4304 H      1 <0>       0.1000
   42 H42       6.6566    -2.5512    -1.7765 H      1 <0>       0.1000
   43 H43       5.7461    -0.3926    -0.9640 H      1 <0>       0.0900
   44 H44       4.9444    -1.2373     0.3820 H      1 <0>       0.0900
   45 H45       7.1491    -2.0194     1.2044 H      1 <0>       0.1100
   46 H46       7.9509    -1.1746    -0.1417 H      1 <0>       0.1200
   47 H47       8.9945     2.1736     2.4394 H      1 <0>       0.4500
   48 H48      10.1960     1.2039     3.1019 H      1 <0>       0.4300
   49 H49       6.2037    -1.0375    -3.6429 H      1 <0>       0.1200
   50 H50       5.3621    -0.2327    -5.8025 H      1 <0>       0.1300
   51 H51       3.0727    -0.7638    -6.5274 H      1 <0>       0.1300
   52 H52       1.5993    -2.1099    -5.0925 H      1 <0>       0.1200
   53 H53      -1.2305    -5.7798    -3.2380 H      1 <0>       0.4300
   54 H54       0.0642    -4.1972     1.3134 H      1 <0>       0.1200
   55 H55       0.0674    -3.6649     3.7131 H      1 <0>       0.1300
   56 H56       0.0376    -1.3230     4.4638 H      1 <0>       0.1300
   57 H57       0.0062     0.5086     2.8315 H      1 <0>       0.1200
@<TRIPOS>BOND
   1    1    2 1
   2    1   36 1
   3    1   37 1
   4    1   38 1
   5    2   35 1
   6    2    3 1
   7    3    4 2
   8    3   39 1
   9    4    5 1
  10    4   30 1
  11    5   28 1
  12    5    6 2
  13    6    7 1
  14    6   25 1
  15    7   24 1
  16    7    8 2
  17    8    9 1
  18    8   40 1
  19    9   10 1
  20    9   19 1
  21   10   11 1
  22   10   41 1
  23   10   42 1
  24   11   12 1
  25   11   43 1
  26   11   44 1
  27   12   13 1
  28   12   45 1
  29   12   46 1
  30   13   14 1
  31   14   15 ar
  32   14   16 ar
  33   15   47 1
  34   15   48 1
  35   16   17 1
  36   16   18 1
  37   19   24 ar
  38   19   20 ar
  39   20   21 ar
  40   20   49 1
  41   21   22 ar
  42   21   50 1
  43   22   23 ar
  44   22   51 1
  45   23   24 ar
  46   23   52 1
  47   25   26 2
  48   25   27 am
  49   27   28 am
  50   27   53 1
  51   28   29 2
  52   30   35 ar
  53   30   31 ar
  54   31   32 ar
  55   31   54 1
  56   32   33 ar
  57   32   55 1
  58   33   34 ar
  59   33   56 1
  60   34   35 ar
  61   34   57 1


@<TRIPOS>MOLECULE
CC(C)CC(C(=O)NC(CCCN=C(N)N)C(=O)O)NC(=O)C(CC1=CC=CC=C1)NC(=O)CNC(=O)C(C)NC(=O)C(CC2=CC=C(C=C2)O)N
104   105   1     0     0
SMALL
USER_CHARGES
@<TRIPOS>ATOM
1      C1     -0.0187    1.5258    0.0104 C.3      1 ZINC000053255341   -0.1500
2      C2      0.0021   -0.0041    0.0020 C.3      1 ZINC000053255341   -0.0900
3      C3      0.7421   -0.5109    1.2415 C.3      1 ZINC000053255341   -0.1400
4      C4     -1.4333   -0.5336    0.0129 C.3      1 ZINC000053255341   -0.1200
5      C5     -1.4157   -2.0577   -0.1212 C.3      1 ZINC000053255341    0.1300
6      H6     -0.7891   -2.4841    0.6622 H        1 ZINC000053255341    0.1100
7      N7     -0.8765   -2.4263   -1.4325 N.am     1 ZINC000053255341   -0.7000
8      C8      0.4560   -2.5245   -1.6099 C.2      1 ZINC000053255341    0.5100
9      O9      1.2086   -2.3077   -0.6839 O.2      1 ZINC000053255341   -0.5300
10     C10     1.0106   -2.9037   -2.9588 C.3      1 ZINC000053255341    0.1400
11     H11     0.6999   -2.1669   -3.6996 H        1 ZINC000053255341    0.1200
12     C12     0.4819   -4.2828   -3.3583 C.3      1 ZINC000053255341   -0.0900
13     C13     0.9365   -4.6090   -4.7576 C.ar     1 ZINC000053255341   -0.0600
14     C14     0.1567   -4.2462   -5.8398 C.ar     1 ZINC000053255341   -0.1000
15     C15     0.5737   -4.5455   -7.1234 C.ar     1 ZINC000053255341   -0.1100
16     C16     1.7706   -5.2071   -7.3247 C.ar     1 ZINC000053255341   -0.1200
17     C17     2.5508   -5.5691   -6.2425 C.ar     1 ZINC000053255341   -0.1200
18     C18     2.1359   -5.2660   -4.9592 C.ar     1 ZINC000053255341   -0.1100
19     N19     2.4736   -2.9421   -2.8921 N.am     1 ZINC000053255341   -0.7000
20     C20     3.2043   -2.7558   -4.0091 C.2      1 ZINC000053255341    0.5100
21     O21     2.6507   -2.5564   -5.0696 O.2      1 ZINC000053255341   -0.5100
22     C22     4.7092   -2.7954   -3.9404 C.3      1 ZINC000053255341    0.1000
23     N23     5.2652   -2.5668   -5.2764 N.am     1 ZINC000053255341   -0.7000
24     C24     6.6006   -2.5585   -5.4582 C.2      1 ZINC000053255341    0.5100
25     O25     7.3421   -2.7403   -4.5157 O.2      1 ZINC000053255341   -0.5400
26     C26     7.1726   -2.3235   -6.8325 C.3      1 ZINC000053255341    0.1300
27     H27     6.8193   -3.1002   -7.5108 H        1 ZINC000053255341    0.1300
28     C28     6.7212   -0.9545   -7.3454 C.3      1 ZINC000053255341   -0.1700
29     N29     8.6356   -2.3619   -6.7657 N.am     1 ZINC000053255341   -0.6800
30     C30     9.3521   -2.6803   -7.8619 C.2      1 ZINC000053255341    0.5100
31     O31     8.7857   -2.9349   -8.9037 O.2      1 ZINC000053255341   -0.5200
32     C32    10.8570   -2.7198   -7.7932 C.3      1 ZINC000053255341    0.0200
33     H33    11.1659   -3.1645   -6.8473 H        1 ZINC000053255341    0.1700
34     N34    11.3770   -3.5254   -8.9061 N.4      1 ZINC000053255341   -0.6200
35     H35    12.3846   -3.5519   -8.8601 H        1 ZINC000053255341    0.4400
36     H36    11.0125   -4.4641   -8.8408 H        1 ZINC000053255341    0.4400
37     H37    11.0910   -3.1137   -9.7817 H        1 ZINC000053255341    0.4400
38     C38    11.4096   -1.2965   -7.8922 C.3      1 ZINC000053255341   -0.0900
39     C39    12.9041   -1.3234   -7.7006 C.ar     1 ZINC000053255341   -0.1400
40     C40    13.4395   -1.2016   -6.4317 C.ar     1 ZINC000053255341   -0.0800
41     C41    14.8092   -1.2260   -6.2534 C.ar     1 ZINC000053255341   -0.1300
42     C42    15.6476   -1.3733   -7.3489 C.ar     1 ZINC000053255341    0.1300
43     O43    16.9953   -1.3981   -7.1761 O.3      1 ZINC000053255341   -0.4900
44     C44    15.1079   -1.4958   -8.6210 C.ar     1 ZINC000053255341   -0.1400
45     C45    13.7373   -1.4756   -8.7934 C.ar     1 ZINC000053255341   -0.1200
46     C46    -2.8192   -2.5900    0.0125 C.2      1 ZINC000053255341    0.5100
47     O47    -3.3197   -3.2157   -0.8979 O.2      1 ZINC000053255341   -0.5400
48     N48    -3.5181   -2.3707    1.1439 N.am     1 ZINC000053255341   -0.6900
49     C49    -4.8824   -2.8882    1.2739 C.3      1 ZINC000053255341    0.0800
50     H50    -4.9577   -3.8471    0.7611 H        1 ZINC000053255341    0.0900
51     C51    -5.2184   -3.0741    2.7549 C.3      1 ZINC000053255341   -0.1100
52     C52    -4.3164   -4.1569    3.3506 C.3      1 ZINC000053255341   -0.1300
53     C53    -4.6523   -4.3427    4.8316 C.3      1 ZINC000053255341    0.0900
54     N54    -3.7886   -5.3795    5.4019 N.pl3    1 ZINC000053255341   -0.6900
55     C55    -3.9082   -5.7198    6.7214 C.cat    1 ZINC000053255341    0.7400
56     N56    -4.8100   -5.1085    7.4877 N.pl3    1 ZINC000053255341   -0.7900
57     N57    -3.1229   -6.6624    7.2399 N.pl3    1 ZINC000053255341   -0.8000
58     H58    -3.2077   -6.9037    8.1755 H        1 ZINC000053255341    0.4400
59     H59    -2.4662   -7.1076    6.6818 H        1 ZINC000053255341    0.4400
60     C60    -5.8509   -1.9117    0.6578 C.2      1 ZINC000053255341    0.4900
61     O61    -6.8895   -2.3139    0.1618 O.co2    1 ZINC000053255341   -0.6900
62     O62    -5.5958   -0.7195    0.6554 O.co2    1 ZINC000053255341   -0.6800
63     H63     1.0039    1.9031    0.0027 H        1 ZINC000053255341    0.0500
64     H64    -0.5459    1.8868   -0.8726 H        1 ZINC000053255341    0.0500
65     H65    -0.5289    1.8773    0.9072 H        1 ZINC000053255341    0.0500
66     H66     0.5123   -0.3556   -0.8948 H        1 ZINC000053255341    0.0700
67     H67     0.7568   -1.6008    1.2356 H        1 ZINC000053255341    0.0700
68     H68     1.7647   -0.1336    1.2338 H        1 ZINC000053255341    0.0500
69     H69     0.2319   -0.1594    2.1383 H        1 ZINC000053255341    0.0400
70     H70    -1.9156   -0.2570    0.9504 H        1 ZINC000053255341    0.0800
71     H71    -1.9862   -0.1019   -0.8214 H        1 ZINC000053255341    0.0800
72     H72    -1.4784   -2.5997   -2.1731 H        1 ZINC000053255341    0.4100
73     H73     0.8659   -5.0332   -2.6673 H        1 ZINC000053255341    0.0800
74     H74    -0.6074   -4.2788   -3.3218 H        1 ZINC000053255341    0.0900
75     H75    -0.7784   -3.7293   -5.6826 H        1 ZINC000053255341    0.1200
76     H76    -0.0359   -4.2627   -7.9689 H        1 ZINC000053255341    0.1200
77     H77     2.0960   -5.4415   -8.3275 H        1 ZINC000053255341    0.1200
78     H78     3.4857   -6.0863   -6.3998 H        1 ZINC000053255341    0.1100
79     H79     2.7454   -5.5488   -4.1137 H        1 ZINC000053255341    0.1100
80     H80     2.9164   -3.1016   -2.0439 H        1 ZINC000053255341    0.4100
81     H81     5.0625   -2.0187   -3.2621 H        1 ZINC000053255341    0.1000
82     H82     5.0308   -3.7706   -3.5750 H        1 ZINC000053255341    0.1000
83     H83     4.6722   -2.4215   -6.0302 H        1 ZINC000053255341    0.4200
84     H84     7.1349   -0.7845   -8.3394 H        1 ZINC000053255341    0.0800
85     H85     5.6327   -0.9259   -7.3951 H        1 ZINC000053255341    0.0900
86     H86     7.0745   -0.1778   -6.6671 H        1 ZINC000053255341    0.0700
87     H87     9.0885   -2.1582   -5.9325 H        1 ZINC000053255341    0.4200
88     H88    11.1764   -0.8837   -8.8737 H        1 ZINC000053255341    0.1100
89     H89    10.9554   -0.6758   -7.1198 H        1 ZINC000053255341    0.1300
90     H90    12.7864   -1.0870   -5.5792 H        1 ZINC000053255341    0.1400
91     H91    15.2270   -1.1301   -5.2621 H        1 ZINC000053255341    0.1400
92     H92    17.3570   -2.2829   -7.0298 H        1 ZINC000053255341    0.4000
93     H93    15.7584   -1.6103   -9.4754 H        1 ZINC000053255341    0.1400
94     H94    13.3166   -1.5713   -9.7835 H        1 ZINC000053255341    0.1300
95     H95    -3.1177   -1.8703    1.8720 H        1 ZINC000053255341    0.3900
96     H96    -5.0574   -2.1352    3.2846 H        1 ZINC000053255341    0.0700
97     H97    -6.2615   -3.3740    2.8560 H        1 ZINC000053255341    0.0900
98     H98    -4.4774   -5.0958    2.8208 H        1 ZINC000053255341    0.0800
99     H99    -3.2733   -3.8569    3.2495 H        1 ZINC000053255341    0.0800
100    H100   -4.4913   -3.4038    5.3613 H        1 ZINC000053255341    0.0900
101    H101   -5.6954   -4.6427    4.9327 H        1 ZINC000053255341    0.0900
102    H102   -3.1319   -5.8247    4.8438 H        1 ZINC000053255341    0.4300
103    H103   -5.3818   -4.4220    7.1101 H        1 ZINC000053255341    0.4400
104    H104   -4.8948   -5.3498    8.4233 H        1 ZINC000053255341    0.4400
@<TRIPOS>BOND
1     1     2     1
2     1     63    1
3     1     64    1
4     1     65    1
5     2     3     1
6     2     4     1
7     2     66    1
8     3     67    1
9     3     68    1
10    3     69    1
11    4     5     1
12    4     70    1
13    4     71    1
14    5     6     1
15    5     7     1
16    5     46    1
17    7     8     am
18    7     72    1
19    8     9     2
20    8     10    1
21    10    11    1
22    10    12    1
23    10    19    1
24    12    13    1
25    12    73    1
26    12    74    1
27    13    18    ar
28    13    14    ar
29    14    15    ar
30    14    75    1
31    15    16    ar
32    15    76    1
33    16    17    ar
34    16    77    1
35    17    18    ar
36    17    78    1
37    18    79    1
38    19    20    am
39    19    80    1
40    20    21    2
41    20    22    1
42    22    23    1
43    22    81    1
44    22    82    1
45    23    24    am
46    23    83    1
47    24    25    2
48    24    26    1
49    26    27    1
50    26    28    1
51    26    29    1
52    28    84    1
53    28    85    1
54    28    86    1
55    29    30    am
56    29    87    1
57    30    31    2
58    30    32    1
59    32    33    1
60    32    34    1
61    32    38    1
62    34    35    1
63    34    36    1
64    34    37    1
65    38    39    1
66    38    88    1
67    38    89    1
68    39    45    ar
69    39    40    ar
70    40    41    ar
71    40    90    1
72    41    42    ar
73    41    91    1
74    42    43    1
75    42    44    ar
76    43    92    1
77    44    45    ar
78    44    93    1
79    45    94    1
80    46    47    2
81    46    48    am
82    48    49    1
83    48    95    1
84    49    50    1
85    49    51    1
86    49    60    1
87    51    52    1
88    51    96    1
89    51    97    1
90    52    53    1
91    52    98    1
92    52    99    1
93    53    54    1
94    53    100   1
95    53    101   1
96    54    55    ar
97    54    102   1
98    55    56    ar
99    55    57    ar
100   56    103   1
101   56    104   1
102   57    58    1
103   57    59    1
104   60    61    ar
105   60    62    ar
@<TRIPOS>SUBSTRUCTURE
1   ZINC000053255341 1     RESIDUE    1   A     ZIN   1


@<TRIPOS>MOLECULE
CN1C=C(C2=CC=CC=C21)C3=C(C(=O)NC3=O)C4=CNC=C4
  35   38    0    0    0
SMALL
USER_CHARGES
NO_NAME
@<TRIPOS>ATOM
    1 C1       -0.0178     1.4608     0.0101 C.3    1 <0>       0.0800
    2 N2        0.0021    -0.0041     0.0020 N.pl3  1 <0>      -0.4800
    3 C3        0.0078    -0.7748    -1.1186 C.2    1 <0>       0.0900
    4 C4        0.0272    -2.0938    -0.7691 C.2    1 <0>      -0.1300
    5 C5        0.0394    -3.2468    -1.6836 C.2    1 <0>      -0.0400
    6 C6        1.1158    -3.7108    -2.4274 C.2    1 <0>      -0.0200
    7 C7        2.4796    -3.1472    -2.4604 C.2    1 <0>      -0.1300
    8 C8        2.8471    -1.9130    -2.9212 C.2    1 <0>       0.0300
    9 N9        4.1912    -1.7872    -2.7738 N.pl3  1 <0>      -0.5600
   10 C10       4.7100    -2.9221    -2.2226 C.2    1 <0>      -0.0100
   11 C11       3.7105    -3.7953    -2.0001 C.2    1 <0>      -0.1700
   12 C12       0.6216    -4.8817    -3.1784 C.2    1 <0>       0.5600
   13 O13       1.2772    -5.5606    -3.9436 O.2    1 <0>      -0.4500
   14 N14      -0.6734    -5.0727    -2.8749 N.am   1 <0>      -0.6900
   15 C15      -1.0913    -4.1502    -1.9915 C.2    1 <0>       0.5600
   16 O16      -2.2117    -4.0667    -1.5299 O.2    1 <0>      -0.4500
   17 C17       0.0340    -2.1368     0.7040 C.ar   1 <0>      -0.0700
   18 C18       0.0515    -3.1674     1.6406 C.ar   1 <0>      -0.0700
   19 C19       0.0527    -2.8670     2.9855 C.ar   1 <0>      -0.1400
   20 C20       0.0365    -1.5459     3.4077 C.ar   1 <0>      -0.1000
   21 C21       0.0191    -0.5160     2.4919 C.ar   1 <0>      -0.1300
   22 C22       0.0236    -0.7981     1.1301 C.ar   1 <0>       0.0900
   23 H23       1.0048     1.8381     0.0023 H      1 <0>       0.0700
   24 H24      -0.5450     1.8219    -0.8730 H      1 <0>       0.0900
   25 H25      -0.5280     1.8123     0.9069 H      1 <0>       0.0800
   26 H26      -0.0015    -0.3998    -2.1314 H      1 <0>       0.1700
   27 H27       2.1827    -1.1670    -3.3317 H      1 <0>       0.1700
   28 H28       4.7071    -1.0049    -3.0241 H      1 <0>       0.4200
   29 H29       5.7526    -3.0906    -1.9971 H      1 <0>       0.1700
   30 H30       3.7992    -4.7831    -1.5727 H      1 <0>       0.1400
   31 H31      -1.2279    -5.7804    -3.2391 H      1 <0>       0.4300
   32 H32       0.0638    -4.1969     1.3145 H      1 <0>       0.1200
   33 H33       0.0659    -3.6640     3.7142 H      1 <0>       0.1200
   34 H34       0.0373    -1.3220     4.4643 H      1 <0>       0.1300
   35 H35       0.0063     0.5092     2.8314 H      1 <0>       0.1200
@<TRIPOS>BOND
   1    1    2 1
   2    1   23 1
   3    1   24 1
   4    1   25 1
   5    2   22 1
   6    2    3 1
   7    3    4 2
   8    3   26 1
   9    4    5 1
  10    4   17 1
  11    5   15 1
  12    5    6 2
  13    6    7 1
  14    6   12 1
  15    7   11 1
  16    7    8 2
  17    8    9 1
  18    8   27 1
  19    9   10 1
  20    9   28 1
  21   10   11 2
  22   10   29 1
  23   11   30 1
  24   12   13 2
  25   12   14 am
  26   14   15 am
  27   14   31 1
  28   15   16 2
  29   17   22 ar
  30   17   18 ar
  31   18   19 ar
  32   18   32 1
  33   19   20 ar
  34   19   33 1
  35   20   21 ar
  36   20   34 1
  37   21   22 ar
  38   21   35 1


@<TRIPOS>MOLECULE
CCCC(CCC)C(=O)O
25    24    1     0     0
SMALL
USER_CHARGES
@<TRIPOS>ATOM
1      C1     -0.0187    1.5258    0.0104 C.3      1 ZINC000003008621   -0.1500
2      C2      0.0021   -0.0041    0.0020 C.3      1 ZINC000003008621   -0.1200
3      C3     -1.4333   -0.5336    0.0129 C.3      1 ZINC000003008621   -0.0900
4      C4     -1.4126   -2.0635    0.0045 C.3      1 ZINC000003008621   -0.1600
5      C5     -2.8413   -2.5937    0.1410 C.3      1 ZINC000003008621   -0.0900
6      C6     -2.8102   -4.1189    0.2579 C.3      1 ZINC000003008621   -0.1200
7      C7     -4.2389   -4.6491    0.3944 C.3      1 ZINC000003008621   -0.1500
8      C8     -0.8177   -2.5507   -1.2916 C.2      1 ZINC000003008621    0.5000
9      O9      0.1892   -3.2381   -1.2799 O.co2    1 ZINC000003008621   -0.7100
10     O10    -1.3432   -2.2574   -2.3519 O.co2    1 ZINC000003008621   -0.7000
11     H11     1.0039    1.9031    0.0027 H        1 ZINC000003008621    0.0500
12     H12    -0.5459    1.8868   -0.8726 H        1 ZINC000003008621    0.0500
13     H13    -0.5289    1.8773    0.9072 H        1 ZINC000003008621    0.0500
14     H14     0.5123   -0.3556   -0.8948 H        1 ZINC000003008621    0.0700
15     H15     0.5293   -0.3651    0.8851 H        1 ZINC000003008621    0.0500
16     H16    -1.9435   -0.1821    0.9097 H        1 ZINC000003008621    0.0400
17     H17    -1.9605   -0.1726   -0.8702 H        1 ZINC000003008621    0.0600
18     H18    -0.8102   -2.4233    0.8386 H        1 ZINC000003008621    0.0600
19     H19    -3.3022   -2.1702    1.0333 H        1 ZINC000003008621    0.0400
20     H20    -3.4202   -2.3083   -0.7374 H        1 ZINC000003008621    0.0600
21     H21    -2.3493   -4.5424   -0.6344 H        1 ZINC000003008621    0.0700
22     H22    -2.2313   -4.4042    1.1363 H        1 ZINC000003008621    0.0500
23     H23    -4.2168   -5.7356    0.4777 H        1 ZINC000003008621    0.0500
24     H24    -4.6999   -4.2256    1.2868 H        1 ZINC000003008621    0.0500
25     H25    -4.8179   -4.3637   -0.4839 H        1 ZINC000003008621    0.0500
@<TRIPOS>BOND
1     1     2     1
2     1     11    1
3     1     12    1
4     1     13    1
5     2     3     1
6     2     14    1
7     2     15    1
8     3     4     1
9     3     16    1
10    3     17    1
11    4     5     1
12    4     8     1
13    4     18    1
14    5     6     1
15    5     19    1
16    5     20    1
17    6     7     1
18    6     21    1
19    6     22    1
20    7     23    1
21    7     24    1
22    7     25    1
23    8     9     ar
24    8     10    ar
@<TRIPOS>SUBSTRUCTURE
1   ZINC000003008621 1     RESIDUE    1   A     ZIN   1


@<TRIPOS>MOLECULE
C1C(SC2=CC=CC=C2N(C1=O)CC3=CC=CC=C3[N+](=O)[O-])C4=CC=CC=C4
  46   49    0    0    0
SMALL
USER_CHARGES
NO_NAME
@<TRIPOS>ATOM
    1 O1        0.0167     0.1190     0.4716 O.2    1 <0>      -0.5000
    2 C2        0.0179     1.3121     0.2533 C.2    1 <0>       0.5200
    3 C3       -1.2769     2.0687     0.2814 C.3    1 <0>      -0.1400
    4 C4       -1.5721     2.5797     1.7011 C.3    1 <0>      -0.0100
    5 H5       -2.3099     3.3811     1.6602 H      1 <0>       0.1200
    6 C6       -2.0899     1.4506     2.5543 C.ar   1 <0>      -0.0900
    7 C7       -1.3070     0.3317     2.7695 C.ar   1 <0>      -0.0900
    8 C8       -1.7820    -0.7040     3.5521 C.ar   1 <0>      -0.1200
    9 C9       -3.0396    -0.6208     4.1199 C.ar   1 <0>      -0.1100
   10 C10      -3.8220     0.4985     3.9055 C.ar   1 <0>      -0.1200
   11 C11      -3.3454     1.5361     3.1264 C.ar   1 <0>      -0.1000
   12 S12      -0.0073     3.2129     2.3914 S.3    1 <0>      -0.1200
   13 C13       0.6954     4.0666     1.0178 C.ar   1 <0>      -0.1400
   14 C14       0.7234     5.4516     0.9893 C.ar   1 <0>      -0.0500
   15 C15       1.2831     6.1029    -0.0957 C.ar   1 <0>      -0.1300
   16 C16       1.8128     5.3773    -1.1465 C.ar   1 <0>      -0.0700
   17 C17       1.7862     3.9937    -1.1240 C.ar   1 <0>      -0.1300
   18 C18       1.2254     3.3352    -0.0427 C.ar   1 <0>       0.1700
   19 N19       1.1755     1.9336    -0.0036 N.am   1 <0>      -0.5600
   20 C20       2.3879     1.1494    -0.2511 C.3    1 <0>       0.1500
   21 C21       3.0376     0.8005     1.0631 C.ar   1 <0>      -0.0400
   22 C22       2.3752     1.0523     2.2498 C.ar   1 <0>      -0.1200
   23 C23       2.9712     0.7322     3.4555 C.ar   1 <0>      -0.0600
   24 C24       4.2292     0.1600     3.4742 C.ar   1 <0>      -0.1200
   25 C25       4.8914    -0.0927     2.2871 C.ar   1 <0>      -0.0500
   26 C26       4.2938     0.2234     1.0816 C.ar   1 <0>      -0.0400
   27 N27       5.0027    -0.0472    -0.1893 N.pl3  1 <0>       0.0300
   28 O28       6.0659    -0.6414    -0.1790 O.2    1 <0>      -0.1500
   29 O29       4.5229     0.3244    -1.2453 O.2    1 <0>      -0.1700
   30 H30      -1.2126     2.9169    -0.4001 H      1 <0>       0.1000
   31 H31      -2.0847     1.4109    -0.0393 H      1 <0>       0.1200
   32 H32      -0.3245     0.2667     2.3258 H      1 <0>       0.1400
   33 H33      -1.1707    -1.5784     3.7196 H      1 <0>       0.1200
   34 H34      -3.4109    -1.4303     4.7308 H      1 <0>       0.1200
   35 H35      -4.8047     0.5634     4.3489 H      1 <0>       0.1300
   36 H36      -3.9567     2.4106     2.9589 H      1 <0>       0.1200
   37 H37       0.3102     6.0198     1.8095 H      1 <0>       0.1400
   38 H38       1.3060     7.1823    -0.1218 H      1 <0>       0.1400
   39 H39       2.2491     5.8926    -1.9894 H      1 <0>       0.1400
   40 H40       2.2010     3.4300    -1.9465 H      1 <0>       0.1400
   41 H41       2.1265     0.2338    -0.7816 H      1 <0>       0.1200
   42 H42       3.0816     1.7340    -0.8554 H      1 <0>       0.1200
   43 H43       1.3922     1.4995     2.2352 H      1 <0>       0.1700
   44 H44       2.4540     0.9297     4.3828 H      1 <0>       0.1400
   45 H45       4.6951    -0.0894     4.4161 H      1 <0>       0.1500
   46 H46       5.8745    -0.5395     2.3018 H      1 <0>       0.1500
@<TRIPOS>BOND
   1    1    2 2
   2    2   19 am
   3    2    3 1
   4    3    4 1
   5    3   30 1
   6    3   31 1
   7    4    5 1
   8    4    6 1
   9    4   12 1
  10    6   11 ar
  11    6    7 ar
  12    7    8 ar
  13    7   32 1
  14    8    9 ar
  15    8   33 1
  16    9   10 ar
  17    9   34 1
  18   10   11 ar
  19   10   35 1
  20   11   36 1
  21   12   13 1
  22   13   18 ar
  23   13   14 ar
  24   14   15 ar
  25   14   37 1
  26   15   16 ar
  27   15   38 1
  28   16   17 ar
  29   16   39 1
  30   17   18 ar
  31   17   40 1
  32   18   19 1
  33   19   20 1
  34   20   21 1
  35   20   41 1
  36   20   42 1
  37   21   26 ar
  38   21   22 ar
  39   22   23 ar
  40   22   43 1
  41   23   24 ar
  42   23   44 1
  43   24   25 ar
  44   24   45 1
  45   25   26 ar
  46   25   46 1
  47   26   27 1
  48   27   28 2
  49   27   29 2


@<TRIPOS>MOLECULE
C1OC2=C(O1)C=C(C=C2)C3=C(NC(=N3)C4=CC=C(C=C4)C(=O)N)C5=CC=CC=N5
  45   49    0    0    0
SMALL
USER_CHARGES
NO_NAME
@<TRIPOS>ATOM
    1 N1       -0.0162     1.3436     0.0094 N.am   1 <0>      -0.8500
    2 C2        0.0021    -0.0041     0.0020 C.2    1 <0>       0.5600
    3 O3        1.0630    -0.5975    -0.0113 O.2    1 <0>      -0.5400
    4 C4       -1.2670    -0.7600     0.0101 C.ar   1 <0>      -0.1300
    5 C5       -2.4866    -0.0779     0.0195 C.ar   1 <0>      -0.0800
    6 C6       -3.6688    -0.7821     0.0266 C.ar   1 <0>      -0.0800
    7 C7       -3.6498    -2.1793     0.0242 C.ar   1 <0>       0.0100
    8 C8       -4.9191    -2.9353     0.0313 C.2    1 <0>       0.2600
    9 N9       -6.1217    -2.4048     0.0342 N.2    1 <0>      -0.4500
   10 C10      -7.0424    -3.3791     0.0398 C.2    1 <0>       0.1100
   11 C11      -8.5123    -3.1922     0.0438 C.ar   1 <0>       0.0100
   12 C12      -9.3323    -4.0896    -0.6389 C.ar   1 <0>      -0.0500
   13 C13     -10.7012    -3.9145    -0.6344 C.ar   1 <0>      -0.1000
   14 C14     -11.2656    -2.8477     0.0480 C.ar   1 <0>       0.0400
   15 O15     -12.5660    -2.4613     0.2021 O.3    1 <0>      -0.3100
   16 C16     -12.5685    -1.5568     1.3222 C.3    1 <0>       0.2100
   17 O17     -11.2413    -0.9987     1.3148 O.3    1 <0>      -0.3100
   18 C18     -10.4504    -1.9473     0.7329 C.ar   1 <0>       0.0200
   19 C19      -9.0788    -2.1215     0.7352 C.ar   1 <0>      -0.0700
   20 C20      -6.3723    -4.5934     0.0404 C.2    1 <0>       0.0400
   21 C21      -6.9790    -5.9374     0.0451 C.ar   1 <0>       0.1900
   22 C22      -6.2619    -7.0238    -0.4620 C.ar   1 <0>      -0.1700
   23 C23      -6.8453    -8.2777    -0.4503 C.ar   1 <0>      -0.0700
   24 C24      -8.1270    -8.4085     0.0674 C.ar   1 <0>      -0.1700
   25 C25      -8.7809    -7.2910     0.5536 C.ar   1 <0>       0.1100
   26 N26      -8.2029    -6.1076     0.5370 N.ar   1 <0>      -0.4600
   27 N27      -5.0295    -4.2952     0.0299 N.pl3  1 <0>      -0.5500
   28 C28      -2.4304    -2.8614     0.0148 C.ar   1 <0>      -0.1200
   29 C29      -1.2481    -2.1573     0.0024 C.ar   1 <0>      -0.0500
   30 H30       0.8172     1.8399     0.0041 H      1 <0>       0.4100
   31 H31      -0.8627     1.8171     0.0160 H      1 <0>       0.4000
   32 H32      -2.5013     1.0020     0.0217 H      1 <0>       0.1400
   33 H33      -4.6114    -0.2549     0.0342 H      1 <0>       0.1500
   34 H34      -8.8962    -4.9217    -1.1716 H      1 <0>       0.1300
   35 H35     -11.3347    -4.6104    -1.1644 H      1 <0>       0.1400
   36 H36     -13.3138    -0.7741     1.1807 H      1 <0>       0.1300
   37 H37     -12.7513    -2.0976     2.2508 H      1 <0>       0.0800
   38 H38      -8.4465    -1.4278     1.2695 H      1 <0>       0.1400
   39 H39      -5.2665    -6.8864    -0.8578 H      1 <0>       0.1300
   40 H40      -6.3156    -9.1363    -0.8358 H      1 <0>       0.1400
   41 H41      -8.6093    -9.3745     0.0899 H      1 <0>       0.1400
   42 H42      -9.7780    -7.3908     0.9564 H      1 <0>       0.1600
   43 H43      -4.2981    -4.9323     0.0276 H      1 <0>       0.4200
   44 H44      -2.4157    -3.9413     0.0130 H      1 <0>       0.1300
   45 H45      -0.3056    -2.6845    -0.0053 H      1 <0>       0.1400
@<TRIPOS>BOND
   1    1    2 am
   2    1   30 1
   3    1   31 1
   4    2    3 2
   5    2    4 1
   6    4   29 ar
   7    4    5 ar
   8    5    6 ar
   9    5   32 1
  10    6    7 ar
  11    6   33 1
  12    7    8 1
  13    7   28 ar
  14    8   27 1
  15    8    9 2
  16    9   10 1
  17   10   11 1
  18   10   20 2
  19   11   19 ar
  20   11   12 ar
  21   12   13 ar
  22   12   34 1
  23   13   14 ar
  24   13   35 1
  25   14   18 ar
  26   14   15 1
  27   15   16 1
  28   16   17 1
  29   16   36 1
  30   16   37 1
  31   17   18 1
  32   18   19 ar
  33   19   38 1
  34   20   21 1
  35   20   27 1
  36   21   26 ar
  37   21   22 ar
  38   22   23 ar
  39   22   39 1
  40   23   24 ar
  41   23   40 1
  42   24   25 ar
  43   24   41 1
  44   25   26 ar
  45   25   42 1
  46   27   43 1
  47   28   29 ar
  48   28   44 1
  49   29   45 1


@<TRIPOS>MOLECULE
C1CCN2CCC3C(=CC(CCC=CC1)(C4C3(C2)CC5N4CCCCC=C5)O)C6=NC=CC7=C6NC8=CC=CC=C78
87    94    1     0     0
SMALL
USER_CHARGES
@<TRIPOS>ATOM
1      O1      0.2542    1.3751   -0.1989 O.3      1 ZINC000004769727   -0.5600
2      C2      0.1178   -0.0582   -0.0959 C.3      1 ZINC000004769727    0.1800
3      C3      0.9270   -0.4681    1.1185 C.2      1 ZINC000004769727   -0.1900
4      C4      0.7558   -1.6588    1.6762 C.2      1 ZINC000004769727   -0.0200
5      C5      1.5687   -2.0495    2.8536 C.ar     1 ZINC000004769727    0.1100
6      N6      0.9683   -2.4102    3.9804 N.ar     1 ZINC000004769727   -0.4400
7      C7      1.6438   -2.7667    5.0567 C.ar     1 ZINC000004769727    0.0600
8      C8      3.0235   -2.7813    5.0623 C.ar     1 ZINC000004769727   -0.0900
9      C9      3.7083   -2.4111    3.9038 C.ar     1 ZINC000004769727   -0.0600
10     C10     2.9689   -2.0415    2.7692 C.ar     1 ZINC000004769727    0.1100
11     N11     3.8522   -1.7204    1.7601 N.pl3    1 ZINC000004769727   -0.6100
12     C12     5.1557   -1.8681    2.1981 C.ar     1 ZINC000004769727    0.1400
13     C13     5.1277   -2.3034    3.5325 C.ar     1 ZINC000004769727   -0.1100
14     C14     6.3210   -2.5302    4.2156 C.ar     1 ZINC000004769727   -0.0500
15     C15     7.5251   -2.3261    3.5780 C.ar     1 ZINC000004769727   -0.1400
16     C16     7.5540   -1.8956    2.2600 C.ar     1 ZINC000004769727   -0.0700
17     C17     6.3824   -1.6717    1.5705 C.ar     1 ZINC000004769727   -0.1400
18     C18    -0.2792   -2.6098    1.1188 C.3      1 ZINC000004769727   -0.0600
19     H19    -0.5614   -3.2826    1.9638 H        1 ZINC000004769727    0.1300
20     C20     0.3122   -3.4919    0.0369 C.3      1 ZINC000004769727   -0.1500
21     C21    -0.7733   -4.2286   -0.7540 C.3      1 ZINC000004769727   -0.0100
22     N22    -1.7256   -3.2248   -1.2436 N.4      1 ZINC000004769727   -0.4000
23     H23    -1.2120   -2.4562   -1.6285 H        1 ZINC000004769727    0.4000
24     C24    -2.4860   -2.7049   -0.0982 C.3      1 ZINC000004769727   -0.0100
25     C25    -1.5252   -1.8408    0.7377 C.3      1 ZINC000004769727   -0.0800
26     C26    -2.2691   -1.4776    2.0438 C.3      1 ZINC000004769727   -0.1300
27     C27    -2.7382   -0.0277    1.8634 C.3      1 ZINC000004769727    0.0600
28     H28    -2.2147    0.5996    2.6029 H        1 ZINC000004769727    0.1500
29     C29    -4.2099    0.0570    2.0823 C.2      1 ZINC000004769727   -0.2000
30     C30    -5.1469    0.5749    1.3935 C.2      1 ZINC000004769727   -0.1000
31     C31    -5.1171    1.2758    0.0799 C.3      1 ZINC000004769727   -0.1200
32     C32    -4.4306    2.6337    0.1565 C.3      1 ZINC000004769727   -0.1300
33     C33    -3.2451    2.6029    1.1133 C.3      1 ZINC000004769727   -0.1600
34     C34    -2.0817    1.8194    0.5063 C.3      1 ZINC000004769727    0.0000
35     N35    -2.3287    0.3942    0.5184 N.4      1 ZINC000004769727   -0.3700
36     H36    -3.1302    0.2093   -0.1070 H        1 ZINC000004769727    0.4100
37     C37    -1.2962   -0.5122    0.0045 C.3      1 ZINC000004769727    0.0600
38     H38    -1.6772   -0.7217   -1.0206 H        1 ZINC000004769727    0.1100
39     C39    -2.5908   -3.7590   -2.2899 C.3      1 ZINC000004769727   -0.0200
40     C40    -1.8197   -3.8897   -3.6008 C.3      1 ZINC000004769727   -0.1600
41     C41    -1.6538   -2.5363   -4.2962 C.3      1 ZINC000004769727   -0.1300
42     C42    -0.2740   -2.4683   -4.9369 C.3      1 ZINC000004769727   -0.1100
43     C43     0.3588   -1.1129   -4.9101 C.2      1 ZINC000004769727   -0.1300
44     C44     0.5177   -0.3942   -3.8281 C.2      1 ZINC000004769727   -0.1700
45     C45     0.0174   -0.9082   -2.5086 C.3      1 ZINC000004769727   -0.1100
46     C46     0.8878   -0.5484   -1.3323 C.3      1 ZINC000004769727   -0.1600
47     H47     1.1697    1.6794   -0.2646 H        1 ZINC000004769727    0.4100
48     H48     1.6516    0.2285    1.5314 H        1 ZINC000004769727    0.1500
49     H49     1.1069   -3.0519    5.9493 H        1 ZINC000004769727    0.1700
50     H50     3.5651   -3.0743    5.9495 H        1 ZINC000004769727    0.1500
51     H51     3.5958   -1.4326    0.8700 H        1 ZINC000004769727    0.4100
52     H52     6.3019   -2.8649    5.2422 H        1 ZINC000004769727    0.1300
53     H53     8.4502   -2.5017    4.1069 H        1 ZINC000004769727    0.1400
54     H54     8.5029   -1.7381    1.7689 H        1 ZINC000004769727    0.1400
55     H55     6.4158   -1.3365    0.5444 H        1 ZINC000004769727    0.1300
56     H56     0.9101   -2.8999   -0.6503 H        1 ZINC000004769727    0.0900
57     H57     0.9647   -4.2378    0.5071 H        1 ZINC000004769727    0.1300
58     H58    -0.3194   -4.7552   -1.5899 H        1 ZINC000004769727    0.1500
59     H59    -1.2845   -4.9337   -0.1002 H        1 ZINC000004769727    0.1500
60     H60    -3.3134   -2.0886   -0.4513 H        1 ZINC000004769727    0.1300
61     H61    -2.8671   -3.5259    0.5068 H        1 ZINC000004769727    0.1700
62     H62    -3.1237   -2.1401    2.1765 H        1 ZINC000004769727    0.1200
63     H63    -1.5924   -1.5593    2.8909 H        1 ZINC000004769727    0.1400
64     H64    -4.5513   -0.4124    3.0043 H        1 ZINC000004769727    0.1500
65     H65    -6.1365    0.4891    1.8448 H        1 ZINC000004769727    0.1300
66     H66    -4.6438    0.6567   -0.6769 H        1 ZINC000004769727    0.0600
67     H67    -6.1574    1.4383   -0.2482 H        1 ZINC000004769727    0.1000
68     H68    -4.0821    2.9240   -0.8404 H        1 ZINC000004769727    0.0800
69     H69    -5.1505    3.3847    0.4993 H        1 ZINC000004769727    0.1000
70     H70    -2.9066    3.6323    1.2966 H        1 ZINC000004769727    0.1200
71     H71    -3.5310    2.1710    2.0686 H        1 ZINC000004769727    0.1000
72     H72    -1.9121    2.1637   -0.5113 H        1 ZINC000004769727    0.1400
73     H73    -1.2022    2.0336    1.1246 H        1 ZINC000004769727    0.1400
74     H74    -2.9637   -4.7415   -1.9898 H        1 ZINC000004769727    0.1500
75     H75    -3.4411   -3.0891   -2.4378 H        1 ZINC000004769727    0.1300
76     H76    -0.8332   -4.3069   -3.3963 H        1 ZINC000004769727    0.0900
77     H77    -2.3587   -4.5690   -4.2655 H        1 ZINC000004769727    0.1300
78     H78    -2.4165   -2.4416   -5.0743 H        1 ZINC000004769727    0.0900
79     H79    -1.7845   -1.7330   -3.5796 H        1 ZINC000004769727    0.0600
80     H80     0.3850   -3.1739   -4.4272 H        1 ZINC000004769727    0.0800
81     H81    -0.3622   -2.7899   -5.9812 H        1 ZINC000004769727    0.0900
82     H82     0.7122   -0.6835   -5.8497 H        1 ZINC000004769727    0.1200
83     H83     1.0110    0.5658   -3.8851 H        1 ZINC000004769727    0.1300
84     H84    -0.9881   -0.5207   -2.3953 H        1 ZINC000004769727    0.0700
85     H85    -0.0014   -2.0006   -2.5959 H        1 ZINC000004769727    0.0600
86     H86     1.5708    0.2640   -1.6434 H        1 ZINC000004769727    0.1100
87     H87     1.5275   -1.3884   -1.0563 H        1 ZINC000004769727    0.0900
@<TRIPOS>BOND
1     1     2     1
2     1     47    1
3     2     37    1
4     2     46    1
5     2     3     1
6     3     4     2
7     3     48    1
8     4     5     1
9     4     18    1
10    5     10    ar
11    5     6     ar
12    6     7     ar
13    7     8     ar
14    7     49    1
15    8     9     ar
16    8     50    1
17    9     13    1
18    9     10    ar
19    10    11    1
20    11    12    1
21    11    51    1
22    12    17    ar
23    12    13    ar
24    13    14    ar
25    14    15    ar
26    14    52    1
27    15    16    ar
28    15    53    1
29    16    17    ar
30    16    54    1
31    17    55    1
32    18    19    1
33    18    25    1
34    18    20    1
35    20    21    1
36    20    56    1
37    20    57    1
38    21    22    1
39    21    58    1
40    21    59    1
41    22    23    1
42    22    24    1
43    22    39    1
44    24    25    1
45    24    60    1
46    24    61    1
47    25    37    1
48    25    26    1
49    26    27    1
50    26    62    1
51    26    63    1
52    27    28    1
53    27    35    1
54    27    29    1
55    29    30    2
56    29    64    1
57    30    31    1
58    30    65    1
59    31    32    1
60    31    66    1
61    31    67    1
62    32    33    1
63    32    68    1
64    32    69    1
65    33    34    1
66    33    70    1
67    33    71    1
68    34    35    1
69    34    72    1
70    34    73    1
71    35    36    1
72    35    37    1
73    37    38    1
74    39    40    1
75    39    74    1
76    39    75    1
77    40    41    1
78    40    76    1
79    40    77    1
80    41    42    1
81    41    78    1
82    41    79    1
83    42    43    1
84    42    80    1
85    42    81    1
86    43    44    2
87    43    82    1
88    44    45    1
89    44    83    1
90    45    46    1
91    45    84    1
92    45    85    1
93    46    86    1
94    46    87    1
@<TRIPOS>SUBSTRUCTURE
1   ZINC000004769727 1     RESIDUE    1   A     ZIN   1


@<TRIPOS>MOLECULE
CC(C1=CC(=C(C=C1)C2=CC=CC=C2)F)C(=O)O
  30   31    0    0    0
SMALL
USER_CHARGES
NO_NAME
@<TRIPOS>ATOM
    1 C1       -0.0187     1.5258     0.0104 C.3    1 <0>      -0.1200
    2 C2        0.0021    -0.0041     0.0020 C.3    1 <0>      -0.1400
    3 H3        0.5123    -0.3556    -0.8948 H      1 <0>       0.0700
    4 C4       -1.4117    -0.5257     0.0127 C.2    1 <0>       0.5000
    5 O5       -2.1751    -0.2365    -0.8929 O.co2  1 <0>      -0.6900
    6 O6       -1.7922    -1.2369     0.9270 O.co2  1 <0>      -0.6800
    7 C7        0.7309    -0.5033     1.2229 C.ar   1 <0>       0.0100
    8 C8        0.2602    -0.1854     2.4840 C.ar   1 <0>      -0.0900
    9 C9        0.9231    -0.6389     3.6067 C.ar   1 <0>      -0.0800
   10 C10       2.0688    -1.4191     3.4689 C.ar   1 <0>      -0.1100
   11 C11       2.7850    -1.9096     4.6721 C.ar   1 <0>      -0.0300
   12 C12       3.1177    -1.0258     5.6968 C.ar   1 <0>      -0.1100
   13 C13       3.7840    -1.4876     6.8137 C.ar   1 <0>      -0.1200
   14 C14       4.1219    -2.8249     6.9170 C.ar   1 <0>      -0.1300
   15 C15       3.7946    -3.7066     5.9027 C.ar   1 <0>      -0.1200
   16 C16       3.1225    -3.2570     4.7842 C.ar   1 <0>      -0.1000
   17 C17       2.5400    -1.7379     2.1944 C.ar   1 <0>       0.1000
   18 F18       3.6505    -2.4941     2.0525 F      1 <0>      -0.1400
   19 C19       1.8645    -1.2821     1.0777 C.ar   1 <0>      -0.1600
   20 H20       1.0039     1.9031     0.0027 H      1 <0>       0.0400
   21 H21      -0.5459     1.8868    -0.8726 H      1 <0>       0.0600
   22 H22      -0.5289     1.8773     0.9072 H      1 <0>       0.0500
   23 H23      -0.6281     0.4196     2.5907 H      1 <0>       0.1300
   24 H24       0.5542    -0.3888     4.5905 H      1 <0>       0.1300
   25 H25       2.8549     0.0187     5.6169 H      1 <0>       0.1200
   26 H26       4.0423    -0.8034     7.6085 H      1 <0>       0.1200
   27 H27       4.6436    -3.1819     7.7926 H      1 <0>       0.1200
   28 H28       4.0612    -4.7496     5.9883 H      1 <0>       0.1200
   29 H29       2.8670    -3.9463     3.9930 H      1 <0>       0.1200
   30 H30       2.2273    -1.5276     0.0906 H      1 <0>       0.1300
@<TRIPOS>BOND
   1    1    2 1
   2    1   20 1
   3    1   21 1
   4    1   22 1
   5    2    3 1
   6    2    4 1
   7    2    7 1
   8    4    5 ar
   9    4    6 ar
  10    7   19 ar
  11    7    8 ar
  12    8    9 ar
  13    8   23 1
  14    9   10 ar
  15    9   24 1
  16   10   11 1
  17   10   17 ar
  18   11   16 ar
  19   11   12 ar
  20   12   13 ar
  21   12   25 1
  22   13   14 ar
  23   13   26 1
  24   14   15 ar
  25   14   27 1
  26   15   16 ar
  27   15   28 1
  28   16   29 1
  29   17   18 1
  30   17   19 ar
  31   19   30 1


@<TRIPOS>MOLECULE
C1C2=C(C3=CC=CC=C3NC1=O)NC4=C2C=C(C=C4)Br
  31   34    0    0    0
SMALL
USER_CHARGES
NO_NAME
@<TRIPOS>ATOM
    1 O1        0.0021    -0.0041     0.0020 O.2    1 <0>      -0.5200
    2 C2       -0.0144     1.2087     0.0087 C.2    1 <0>       0.5300
    3 C3       -1.3427     1.9236     0.0315 C.3    1 <0>      -0.0600
    4 C4       -1.4351     2.7563    -1.2233 C.2    1 <0>      -0.1500
    5 C5       -0.5453     3.7168    -1.5810 C.2    1 <0>       0.1300
    6 N6       -0.9129     4.2511    -2.8005 N.pl3  1 <0>      -0.5800
    7 C7       -2.0659     3.6591    -3.2329 C.ar   1 <0>       0.1200
    8 C8       -2.8358     3.8507    -4.3773 C.ar   1 <0>      -0.1200
    9 C9       -3.9713     3.0698    -4.5114 C.ar   1 <0>      -0.0700
   10 C10      -4.3421     2.1331    -3.5597 C.ar   1 <0>      -0.1200
   11 Br11     -5.9120     1.1157    -3.8359 Br     1 <0>      -0.0500
   12 C12      -3.5967     1.9203    -2.4133 C.ar   1 <0>      -0.0300
   13 C13      -2.4443     2.6989    -2.2578 C.ar   1 <0>      -0.0900
   14 C14       0.6163     4.1389    -0.7691 C.ar   1 <0>      -0.0600
   15 C15       0.9702     5.4928    -0.7853 C.ar   1 <0>      -0.0800
   16 C16       2.0215     5.9466    -0.0192 C.ar   1 <0>      -0.1300
   17 C17       2.7290     5.0604     0.7745 C.ar   1 <0>      -0.0800
   18 C18       2.3992     3.7222     0.7876 C.ar   1 <0>      -0.1400
   19 C19       1.3505     3.2382     0.0029 C.ar   1 <0>       0.1800
   20 N20       1.1397     1.8709     0.0012 N.am   1 <0>      -0.6600
   21 H21      -2.1539     1.1959     0.0528 H      1 <0>       0.1200
   22 H22      -1.4004     2.5686     0.9082 H      1 <0>       0.1100
   23 H23      -0.4263     4.9413    -3.2776 H      1 <0>       0.4200
   24 H24      -2.5595     4.5769    -5.1274 H      1 <0>       0.1400
   25 H25      -4.5897     3.1952    -5.3879 H      1 <0>       0.1300
   26 H26      -3.8901     1.1892    -1.6746 H      1 <0>       0.1400
   27 H27       0.4165     6.1854    -1.4019 H      1 <0>       0.1300
   28 H28       2.2933     6.9916    -0.0382 H      1 <0>       0.1300
   29 H29       3.5435     5.4192     1.3863 H      1 <0>       0.1300
   30 H30       2.9579     3.0406     1.4118 H      1 <0>       0.1400
   31 H31       1.9394     1.3221    -0.0122 H      1 <0>       0.4100
@<TRIPOS>BOND
   1    1    2 2
   2    2   20 am
   3    2    3 1
   4    3    4 1
   5    3   21 1
   6    3   22 1
   7    4   13 1
   8    4    5 2
   9    5    6 1
  10    5   14 1
  11    6    7 1
  12    6   23 1
  13    7   13 ar
  14    7    8 ar
  15    8    9 ar
  16    8   24 1
  17    9   10 ar
  18    9   25 1
  19   10   11 1
  20   10   12 ar
  21   12   13 ar
  22   12   26 1
  23   14   19 ar
  24   14   15 ar
  25   15   16 ar
  26   15   27 1
  27   16   17 ar
  28   16   28 1
  29   17   18 ar
  30   17   29 1
  31   18   19 ar
  32   18   30 1
  33   19   20 1
  34   20   31 1


@<TRIPOS>MOLECULE
CS(=O)(=O)NC1=CC=C(C=C1)CCNC(=O)C2=C3C(=C(C=C2)O)NC(=N3)C4=CC=C(C=C4)F
53    56    1     0     0
SMALL
USER_CHARGES
@<TRIPOS>ATOM
1      C1      1.0692   -2.4064    0.3684 C.3      1 ZINC000034000152   -0.6700
2      S2      0.2095   -0.8437    0.0380 S.o2     1 ZINC000034000152    2.6100
3      O3     -1.1512   -1.0836   -0.2939 O.2      1 ZINC000034000152   -0.9600
4      O4      0.5662    0.1356    1.0040 O.2      1 ZINC000034000152   -0.9500
5      N5      0.8823   -0.2917   -1.3708 N.am     1 ZINC000034000152   -1.0600
6      C6      2.2381    0.0413   -1.4137 C.ar     1 ZINC000034000152    0.1100
7      C7      2.6844    1.2194   -0.8284 C.ar     1 ZINC000034000152   -0.1000
8      C8      4.0257    1.5454   -0.8722 C.ar     1 ZINC000034000152   -0.1000
9      C9      4.9240    0.7008   -1.4983 C.ar     1 ZINC000034000152   -0.0700
10     C10     6.3869    1.0599   -1.5441 C.3      1 ZINC000034000152   -0.1000
11     C11     7.0924    0.4829   -0.3152 C.3      1 ZINC000034000152    0.1300
12     N12     8.5145    0.8320   -0.3597 N.am     1 ZINC000034000152   -0.7400
13     C13     9.3390    0.4273    0.6267 C.2      1 ZINC000034000152    0.5800
14     O14     8.9023   -0.2277    1.5539 O.2      1 ZINC000034000152   -0.5900
15     C15    10.7682    0.7781    0.5819 C.ar     1 ZINC000034000152   -0.3200
16     C16    11.6315    0.3538    1.6043 C.ar     1 ZINC000034000152    0.1800
17     N17    11.4577   -0.3815    2.7536 N.pl3    1 ZINC000034000152   -0.5800
18     C18    12.6803   -0.4754    3.3652 C.2      1 ZINC000034000152    0.2100
19     C19    12.9450   -1.1846    4.6353 C.ar     1 ZINC000034000152    0.0100
20     C20    11.9059   -1.8322    5.3054 C.ar     1 ZINC000034000152   -0.0900
21     C21    12.1581   -2.4922    6.4897 C.ar     1 ZINC000034000152   -0.1500
22     C22    13.4407   -2.5132    7.0146 C.ar     1 ZINC000034000152    0.0900
23     F23    13.6826   -3.1615    8.1749 F        1 ZINC000034000152   -0.1400
24     C24    14.4761   -1.8717    6.3532 C.ar     1 ZINC000034000152   -0.1500
25     C25    14.2358   -1.2137    5.1653 C.ar     1 ZINC000034000152   -0.0600
26     N26    13.5792    0.1587    2.6535 N.2      1 ZINC000034000152   -0.4200
27     C27    12.9921    0.6920    1.5537 C.ar     1 ZINC000034000152   -0.0800
28     C28    13.4760    1.4532    0.4780 C.ar     1 ZINC000034000152    0.3600
29     O29    14.7902    1.7855    0.4191 O.3      1 ZINC000034000152   -0.6600
30     C30    12.6119    1.8649   -0.5236 C.ar     1 ZINC000034000152   -0.3100
31     C31    11.2736    1.5299   -0.4806 C.ar     1 ZINC000034000152    0.0200
32     C32     4.4832   -0.4727   -2.0819 C.ar     1 ZINC000034000152   -0.1100
33     C33     3.1441   -0.8076   -2.0368 C.ar     1 ZINC000034000152   -0.1200
34     H34     0.9510   -3.0737   -0.4853 H        1 ZINC000034000152    0.1300
35     H35     2.1289   -2.2105    0.5325 H        1 ZINC000034000152    0.1300
36     H36     0.6444   -2.8741    1.2567 H        1 ZINC000034000152    0.1300
37     H37     0.3349   -0.1997   -2.1663 H        1 ZINC000034000152    0.4200
38     H38     1.9832    1.8798   -0.3400 H        1 ZINC000034000152    0.1400
39     H39     4.3733    2.4612   -0.4174 H        1 ZINC000034000152    0.1300
40     H40     6.8345    0.6461   -2.4477 H        1 ZINC000034000152    0.0800
41     H41     6.4948    2.1446   -1.5491 H        1 ZINC000034000152    0.0800
42     H42     6.6449    0.8967    0.5884 H        1 ZINC000034000152    0.0600
43     H43     6.9845   -0.6017   -0.3102 H        1 ZINC000034000152    0.0600
44     H44     8.8628    1.3543   -1.0991 H        1 ZINC000034000152    0.4000
45     H45    10.6245   -0.7624    3.0722 H        1 ZINC000034000152    0.4200
46     H46    10.9061   -1.8161    4.8974 H        1 ZINC000034000152    0.1300
47     H47    11.3547   -2.9932    7.0092 H        1 ZINC000034000152    0.1400
48     H48    15.4736   -1.8908    6.7666 H        1 ZINC000034000152    0.1400
49     H49    15.0433   -0.7142    4.6507 H        1 ZINC000034000152    0.1500
50     H50    12.9901    2.4506   -1.3484 H        1 ZINC000034000152    0.1100
51     H51    10.6123    1.8578   -1.2690 H        1 ZINC000034000152    0.1100
52     H52     5.1874   -1.1301   -2.5701 H        1 ZINC000034000152    0.1300
53     H53     2.8004   -1.7244   -2.4926 H        1 ZINC000034000152    0.1300
@<TRIPOS>BOND
1     1     2     1
2     1     34    1
3     1     35    1
4     1     36    1
5     2     3     2
6     2     4     2
7     2     5     am
8     5     6     1
9     5     37    1
10    6     33    ar
11    6     7     ar
12    7     8     ar
13    7     38    1
14    8     9     ar
15    8     39    1
16    9     10    1
17    9     32    ar
18    10    11    1
19    10    40    1
20    10    41    1
21    11    12    1
22    11    42    1
23    11    43    1
24    12    13    am
25    12    44    1
26    13    14    2
27    13    15    1
28    15    31    ar
29    15    16    ar
30    16    27    ar
31    16    17    1
32    17    18    1
33    17    45    1
34    18    19    1
35    18    26    2
36    19    25    ar
37    19    20    ar
38    20    21    ar
39    20    46    1
40    21    22    ar
41    21    47    1
42    22    23    1
43    22    24    ar
44    24    25    ar
45    24    48    1
46    25    49    1
47    26    27    1
48    27    28    ar
49    28    29    1
50    28    30    ar
51    30    31    ar
52    30    50    1
53    31    51    1
54    32    33    ar
55    32    52    1
56    33    53    1
@<TRIPOS>SUBSTRUCTURE
1   ZINC000034000152 1     RESIDUE    1   A     ZIN   1


@<TRIPOS>MOLECULE
C1=CC=C(C=C1)C2=NC(=N)SN2C3=CC=CC=C3
30    32    1     0     0
SMALL
USER_CHARGES
@<TRIPOS>ATOM
1      N1      0.3500    1.2852    0.6367 N.pl3    1 ZINC000000041257   -0.7300
2      C2      0.1839   -0.0486    0.3174 C.2      1 ZINC000000041257    0.3800
3      N3     -0.8850   -0.7885    0.5148 N.2      1 ZINC000000041257   -0.5300
4      C4     -0.8186   -2.0473    0.1279 C.2      1 ZINC000000041257    0.4800
5      C5     -1.9654   -2.9689    0.3025 C.ar     1 ZINC000000041257   -0.1000
6      C6     -1.7437   -4.3185    0.5750 C.ar     1 ZINC000000041257   -0.0700
7      C7     -2.8159   -5.1719    0.7370 C.ar     1 ZINC000000041257   -0.1200
8      C8     -4.1086   -4.6911    0.6296 C.ar     1 ZINC000000041257   -0.0600
9      C9     -4.3348   -3.3534    0.3590 C.ar     1 ZINC000000041257   -0.1200
10     C10    -3.2709   -2.4891    0.2006 C.ar     1 ZINC000000041257   -0.0400
11     N11     0.3095   -2.4524   -0.4208 N.2      1 ZINC000000041257   -0.4700
12     C12     0.5974   -3.7083   -0.8918 C.ar     1 ZINC000000041257    0.0600
13     C13    -0.2236   -4.3023   -1.8518 C.ar     1 ZINC000000041257   -0.0700
14     C14     0.0718   -5.5653   -2.3215 C.ar     1 ZINC000000041257   -0.1000
15     C15     1.1791   -6.2432   -1.8431 C.ar     1 ZINC000000041257   -0.0700
16     C16     1.9970   -5.6602   -0.8915 C.ar     1 ZINC000000041257   -0.1000
17     C17     1.7159   -4.3956   -0.4172 C.ar     1 ZINC000000041257   -0.0900
18     S18     1.3303   -1.0940   -0.4306 S.3      1 ZINC000000041257    0.4200
19     H19     1.1885    1.7307    0.4380 H        1 ZINC000000041257    0.4400
20     H20    -0.3732    1.7773    1.0559 H        1 ZINC000000041257    0.4400
21     H21    -0.7350   -4.6951    0.6587 H        1 ZINC000000041257    0.1300
22     H22    -2.6455   -6.2174    0.9477 H        1 ZINC000000041257    0.1400
23     H23    -4.9446   -5.3628    0.7572 H        1 ZINC000000041257    0.1400
24     H24    -5.3463   -2.9839    0.2759 H        1 ZINC000000041257    0.1400
25     H25    -3.4487   -1.4449   -0.0103 H        1 ZINC000000041257    0.1400
26     H26    -1.0884   -3.7743   -2.2258 H        1 ZINC000000041257    0.1400
27     H27    -0.5628   -6.0261   -3.0641 H        1 ZINC000000041257    0.1500
28     H28     1.4057   -7.2319   -2.2139 H        1 ZINC000000041257    0.1500
29     H29     2.8595   -6.1948   -0.5219 H        1 ZINC000000041257    0.1500
30     H30     2.3551   -3.9416    0.3255 H        1 ZINC000000041257    0.1400
@<TRIPOS>BOND
1     1     2     1
2     1     19    1
3     1     20    1
4     2     18    1
5     2     3     2
6     3     4     1
7     4     5     1
8     4     11    2
9     5     10    ar
10    5     6     ar
11    6     7     ar
12    6     21    1
13    7     8     ar
14    7     22    1
15    8     9     ar
16    8     23    1
17    9     10    ar
18    9     24    1
19    10    25    1
20    11    12    1
21    11    18    1
22    12    17    ar
23    12    13    ar
24    13    14    ar
25    13    26    1
26    14    15    ar
27    14    27    1
28    15    16    ar
29    15    28    1
30    16    17    ar
31    16    29    1
32    17    30    1
@<TRIPOS>SUBSTRUCTURE
1   ZINC000000041257 1     RESIDUE    1   A     ZIN   1


@<TRIPOS>MOLECULE
C1CC2(C1)CCOC3=C4N2C=C(C(=O)C4=C(C(=C3NCCNC5=CC=CC=N5)F)N)C(=O)O
56    60    1     0     0
SMALL
USER_CHARGES
@<TRIPOS>ATOM
1      N1     -0.0168    1.3902    0.0097 N.pl3    1 ZINC000059223658   -0.8400
2      C2      0.0021   -0.0041    0.0020 C.ar     1 ZINC000059223658    0.3000
3      C3     -1.1802   -0.7145    0.1081 C.ar     1 ZINC000059223658   -0.0500
4      F4     -2.3585   -0.0631    0.2193 F        1 ZINC000059223658   -0.1300
5      C5     -1.1459   -2.1049    0.0989 C.ar     1 ZINC000059223658    0.1700
6      N6     -2.3361   -2.8218    0.2348 N.3      1 ZINC000059223658   -0.6200
7      C7     -3.2718   -2.4994   -0.8508 C.3      1 ZINC000059223658    0.0400
8      C8     -4.5612   -3.3025   -0.6681 C.3      1 ZINC000059223658    0.1300
9      N9     -5.4944   -2.9809   -1.7508 N.pl3    1 ZINC000059223658   -0.7200
10     C10    -6.7420   -3.5920   -1.7974 C.ar     1 ZINC000059223658    0.4000
11     C11    -7.1004   -4.5036   -0.8098 C.ar     1 ZINC000059223658   -0.2400
12     C12    -8.3454   -5.1040   -0.8682 C.ar     1 ZINC000059223658   -0.0300
13     C13    -9.1930   -4.7712   -1.9162 C.ar     1 ZINC000059223658   -0.2400
14     C14    -8.7723   -3.8579   -2.8624 C.ar     1 ZINC000059223658    0.1500
15     N15    -7.5810   -3.2970   -2.7786 N.ar     1 ZINC000059223658   -0.5500
16     C16     0.0541   -2.7926   -0.0439 C.ar     1 ZINC000059223658   -0.0500
17     O17     0.0361   -4.1509    0.0488 O.3      1 ZINC000059223658   -0.3000
18     C18     0.1729   -4.9094   -1.1332 C.3      1 ZINC000059223658    0.0600
19     C19     1.4395   -4.5611   -1.9002 C.3      1 ZINC000059223658   -0.1500
20     C20     2.5098   -4.1480   -0.8858 C.3      1 ZINC000059223658    0.1400
21     C21     2.6091   -5.1046    0.3104 C.3      1 ZINC000059223658   -0.1300
22     C22     4.1356   -4.9427    0.2085 C.3      1 ZINC000059223658   -0.1500
23     C23     3.9226   -4.6009   -1.2763 C.3      1 ZINC000059223658   -0.1500
24     N24     2.4418   -2.7369   -0.4907 N.pl3    1 ZINC000059223658   -0.4700
25     C25     3.6261   -2.0905   -0.4166 C.2      1 ZINC000059223658    0.1300
26     C26     3.7247   -0.7279   -0.2482 C.2      1 ZINC000059223658   -0.2900
27     C27     5.0350   -0.0742   -0.1840 C.2      1 ZINC000059223658    0.5400
28     O28     6.0572   -0.7410   -0.2805 O.co2    1 ZINC000059223658   -0.7000
29     O29     5.1073    1.1387   -0.0340 O.co2    1 ZINC000059223658   -0.6600
30     C30     2.4846    0.0592   -0.1344 C.2      1 ZINC000059223658    0.4300
31     O31     2.5058    1.2759   -0.0615 O.2      1 ZINC000059223658   -0.4600
32     C32     1.2197   -0.6906   -0.1191 C.ar     1 ZINC000059223658   -0.2700
33     C33     1.2559   -2.0987   -0.2145 C.ar     1 ZINC000059223658    0.2600
34     H34     0.7243    1.8874   -0.3704 H        1 ZINC000059223658    0.4200
35     H35    -0.7729    1.8629    0.3915 H        1 ZINC000059223658    0.4000
36     H36    -2.1579   -3.8141    0.2757 H        1 ZINC000059223658    0.3700
37     H37    -3.5011   -1.4340   -0.8284 H        1 ZINC000059223658    0.1000
38     H38    -2.8183   -2.7533   -1.8089 H        1 ZINC000059223658    0.0500
39     H39    -4.3320   -4.3679   -0.6906 H        1 ZINC000059223658    0.0600
40     H40    -5.0148   -3.0485    0.2899 H        1 ZINC000059223658    0.0800
41     H41    -5.2416   -2.3415   -2.4350 H        1 ZINC000059223658    0.4100
42     H42    -6.4159   -4.7397   -0.0085 H        1 ZINC000059223658    0.1300
43     H43    -8.6509   -5.8158   -0.1157 H        1 ZINC000059223658    0.1300
44     H44   -10.1714   -5.2224   -1.9908 H        1 ZINC000059223658    0.1300
45     H45    -9.4284   -3.5961   -3.6793 H        1 ZINC000059223658    0.1500
46     H46     0.1973   -5.9676   -0.8730 H        1 ZINC000059223658    0.1000
47     H47    -0.6898   -4.7247   -1.7733 H        1 ZINC000059223658    0.0400
48     H48     1.7806   -5.4305   -2.4621 H        1 ZINC000059223658    0.1000
49     H49     1.2410   -3.7350   -2.5831 H        1 ZINC000059223658    0.0800
50     H50     2.1871   -4.6994    1.2302 H        1 ZINC000059223658    0.0800
51     H51     2.2612   -6.1144    0.0925 H        1 ZINC000059223658    0.0900
52     H52     4.5266   -4.1119    0.7959 H        1 ZINC000059223658    0.0900
53     H53     4.6846   -5.8707    0.3684 H        1 ZINC000059223658    0.0800
54     H54     3.9367   -5.4718   -1.9315 H        1 ZINC000059223658    0.1000
55     H55     4.5580   -3.7905   -1.6336 H        1 ZINC000059223658    0.0900
56     H56     4.5354   -2.6684   -0.4924 H        1 ZINC000059223658    0.1800
@<TRIPOS>BOND
1     1     2     1
2     1     34    1
3     1     35    1
4     2     32    ar
5     2     3     ar
6     3     4     1
7     3     5     ar
8     5     6     1
9     5     16    ar
10    6     7     1
11    6     36    1
12    7     8     1
13    7     37    1
14    7     38    1
15    8     9     1
16    8     39    1
17    8     40    1
18    9     10    1
19    9     41    1
20    10    15    ar
21    10    11    ar
22    11    12    ar
23    11    42    1
24    12    13    ar
25    12    43    1
26    13    14    ar
27    13    44    1
28    14    15    ar
29    14    45    1
30    16    33    ar
31    16    17    1
32    17    18    1
33    18    19    1
34    18    46    1
35    18    47    1
36    19    20    1
37    19    48    1
38    19    49    1
39    20    23    1
40    20    21    1
41    20    24    1
42    21    22    1
43    21    50    1
44    21    51    1
45    22    23    1
46    22    52    1
47    22    53    1
48    23    54    1
49    23    55    1
50    24    33    1
51    24    25    1
52    25    26    2
53    25    56    1
54    26    27    1
55    26    30    1
56    27    28    ar
57    27    29    ar
58    30    31    2
59    30    32    1
60    32    33    ar
@<TRIPOS>SUBSTRUCTURE
1   ZINC000059223658 1     RESIDUE    1   A     ZIN   1


@<TRIPOS>MOLECULE
CC1COC2=C3N1C=C(C(=O)C3=C(C(=C2NCCCN4C=CN=C4)F)N)C#N
  47   50    0    0    0
SMALL
USER_CHARGES
NO_NAME
@<TRIPOS>ATOM
    1 C1       -0.3656     1.3706     0.1410 C.3    1 <0>      -0.1700
    2 C2       -0.2081    -0.1490     0.0586 C.3    1 <0>       0.0900
    3 H3       -1.1922    -0.6146     0.0058 H      1 <0>       0.1100
    4 C4        0.5971    -0.5123    -1.1919 C.3    1 <0>       0.0500
    5 O5        0.8527    -1.9219    -1.1785 O.3    1 <0>      -0.3000
    6 C6        1.4761    -2.4023    -0.0647 C.ar   1 <0>      -0.0400
    7 C7        2.2747    -3.5358    -0.1525 C.ar   1 <0>       0.2800
    8 N8        2.4303    -4.1786    -1.3823 N.pl3  1 <0>      -0.7200
    9 C9        3.5056    -5.1564    -1.5668 C.3    1 <0>       0.1200
   10 C10       3.4544    -5.7077    -2.9931 C.3    1 <0>      -0.1500
   11 C11       4.5773    -6.7288    -3.1858 C.3    1 <0>       0.1100
   12 N12       4.5283    -7.2567    -4.5515 N.pl3  1 <0>      -0.4600
   13 C13       3.8226    -8.3506    -4.9746 C.2    1 <0>      -0.0600
   14 C14       4.0574    -8.4792    -6.2945 C.2    1 <0>      -0.0300
   15 N15       4.8838    -7.4906    -6.6671 N.2    1 <0>      -0.4900
   16 C16       5.1661    -6.7515    -5.6293 C.2    1 <0>       0.1800
   17 C17       2.9219    -4.0368     0.9747 C.ar   1 <0>      -0.0700
   18 F18       3.6938    -5.1410     0.8752 F      1 <0>      -0.1300
   19 C19       2.7747    -3.4034     2.1966 C.ar   1 <0>       0.3000
   20 N20       3.4226    -3.9015     3.3268 N.pl3  1 <0>      -0.8400
   21 C21       1.9704    -2.2568     2.2924 C.ar   1 <0>      -0.2600
   22 C22       1.3084    -1.7549     1.1557 C.ar   1 <0>       0.2100
   23 N23       0.5013    -0.6344     1.2519 N.pl3  1 <0>      -0.4800
   24 C24       0.3404     0.0300     2.4110 C.2    1 <0>       0.2300
   25 C25       0.9442    -0.3647     3.5826 C.2    1 <0>      -0.2200
   26 C26       0.7391     0.3753     4.7913 C.1    1 <0>       0.2800
   27 N27       0.5764     0.9624     5.7501 N.1    1 <0>      -0.4200
   28 C28       1.8052    -1.5591     3.5745 C.2    1 <0>       0.4600
   29 O29       2.3552    -1.9538     4.5888 O.2    1 <0>      -0.4900
   30 H30       0.6188     1.8357     0.1938 H      1 <0>       0.0800
   31 H31      -0.8902     1.7300    -0.7443 H      1 <0>       0.0900
   32 H32      -0.9377     1.6288     1.0321 H      1 <0>       0.0800
   33 H33       0.0257    -0.2526    -2.0830 H      1 <0>       0.1300
   34 H34       1.5421     0.0308    -1.1890 H      1 <0>       0.0800
   35 H35       1.8266    -3.9777    -2.1144 H      1 <0>       0.4100
   36 H36       4.4683    -4.6739    -1.3981 H      1 <0>       0.0700
   37 H37       3.3793    -5.9736    -0.8567 H      1 <0>       0.0800
   38 H38       2.4916    -6.1901    -3.1618 H      1 <0>       0.0800
   39 H39       3.5806    -4.8904    -3.7033 H      1 <0>       0.0800
   40 H40       5.5400    -6.2463    -3.0171 H      1 <0>       0.1000
   41 H41       4.4511    -7.5460    -2.4757 H      1 <0>       0.1000
   42 H42       3.1980    -8.9884    -4.3668 H      1 <0>       0.1700
   43 H43       3.6514    -9.2441    -6.9398 H      1 <0>       0.1700
   44 H44       5.8087    -5.8835    -5.6308 H      1 <0>       0.2000
   45 H45       4.1747    -4.5060     3.2278 H      1 <0>       0.4000
   46 H46       3.1211    -3.6435     4.2119 H      1 <0>       0.4200
   47 H47      -0.2881     0.9082     2.4221 H      1 <0>       0.1800
@<TRIPOS>BOND
   1    1    2 1
   2    1   30 1
   3    1   31 1
   4    1   32 1
   5    2    3 1
   6    2   23 1
   7    2    4 1
   8    4    5 1
   9    4   33 1
  10    4   34 1
  11    5    6 1
  12    6   22 ar
  13    6    7 ar
  14    7    8 1
  15    7   17 ar
  16    8    9 1
  17    8   35 1
  18    9   10 1
  19    9   36 1
  20    9   37 1
  21   10   11 1
  22   10   38 1
  23   10   39 1
  24   11   12 1
  25   11   40 1
  26   11   41 1
  27   12   16 1
  28   12   13 1
  29   13   14 2
  30   13   42 1
  31   14   15 1
  32   14   43 1
  33   15   16 2
  34   16   44 1
  35   17   18 1
  36   17   19 ar
  37   19   20 1
  38   19   21 ar
  39   20   45 1
  40   20   46 1
  41   21   28 1
  42   21   22 ar
  43   22   23 1
  44   23   24 1
  45   24   25 2
  46   24   47 1
  47   25   26 1
  48   25   28 1
  49   26   27 3
  50   28   29 2


@<TRIPOS>MOLECULE
C1=CC=C(C(=C1)C2=C(C(=O)NC2=O)NC3=CC(=C(C(=C3)Cl)O)Cl)Cl
  32   34    0    0    0
SMALL
USER_CHARGES
NO_NAME
@<TRIPOS>ATOM
    1 O1        0.3203    -0.3708    -0.3374 O.2    1 <0>      -0.4300
    2 C2        0.1088     0.8240    -0.2946 C.2    1 <0>       0.5400
    3 N3       -1.0973     1.4126    -0.3760 N.am   1 <0>      -0.6900
    4 C4       -0.9675     2.7479    -0.2940 C.2    1 <0>       0.5800
    5 O5       -1.8775     3.5519    -0.3366 O.2    1 <0>      -0.4700
    6 C6        0.4628     3.0754    -0.1436 C.2    1 <0>      -0.1900
    7 C7        1.0533     4.4249    -0.0172 C.ar   1 <0>       0.0000
    8 C8        1.7216     5.0020    -1.0985 C.ar   1 <0>      -0.0900
    9 C9        2.2699     6.2618    -0.9740 C.ar   1 <0>      -0.1200
   10 C10       2.1594     6.9537     0.2192 C.ar   1 <0>      -0.1000
   11 C11       1.4989     6.3884     1.2958 C.ar   1 <0>      -0.1100
   12 C12       0.9400     5.1311     1.1835 C.ar   1 <0>      -0.0100
   13 Cl13      0.1117     4.4231     2.5349 Cl     1 <0>      -0.0600
   14 C14       1.1358     1.8813    -0.1370 C.2    1 <0>       0.1900
   15 N15       2.4968     1.7003    -0.0174 N.pl3  1 <0>      -0.6300
   16 C16       3.0090     0.9210     1.0226 C.ar   1 <0>       0.0300
   17 C17       2.1635     0.4499     2.0197 C.ar   1 <0>      -0.0700
   18 C18       2.6708    -0.3212     3.0478 C.ar   1 <0>      -0.1400
   19 Cl19      1.6147    -0.9098     4.2936 Cl     1 <0>      -0.0900
   20 C20       4.0246    -0.6259     3.0845 C.ar   1 <0>       0.2800
   21 O21       4.5231    -1.3854     4.0967 O.3    1 <0>      -0.6700
   22 C22       4.8698    -0.1561     2.0886 C.ar   1 <0>      -0.1400
   23 Cl23      6.5624    -0.5387     2.1351 Cl     1 <0>      -0.0900
   24 C24       4.3633     0.6115     1.0575 C.ar   1 <0>      -0.0800
   25 H25      -1.9390     0.9418    -0.4796 H      1 <0>       0.4300
   26 H26       1.8095     4.4632    -2.0304 H      1 <0>       0.1300
   27 H27       2.7871     6.7090    -1.8100 H      1 <0>       0.1300
   28 H28       2.5910     7.9394     0.3108 H      1 <0>       0.1300
   29 H29       1.4167     6.9338     2.2243 H      1 <0>       0.1400
   30 H30       3.0991     2.1140    -0.6553 H      1 <0>       0.4100
   31 H31       1.1102     0.6869     1.9913 H      1 <0>       0.1000
   32 H32       5.0210     0.9770     0.2827 H      1 <0>       0.1100
@<TRIPOS>BOND
   1    1    2 2
   2    2   14 1
   3    2    3 am
   4    3    4 am
   5    3   25 1
   6    4    5 2
   7    4    6 1
   8    6    7 1
   9    6   14 2
  10    7   12 ar
  11    7    8 ar
  12    8    9 ar
  13    8   26 1
  14    9   10 ar
  15    9   27 1
  16   10   11 ar
  17   10   28 1
  18   11   12 ar
  19   11   29 1
  20   12   13 1
  21   14   15 1
  22   15   16 1
  23   15   30 1
  24   16   24 ar
  25   16   17 ar
  26   17   18 ar
  27   17   31 1
  28   18   19 1
  29   18   20 ar
  30   20   21 1
  31   20   22 ar
  32   22   23 1
  33   22   24 ar
  34   24   32 1


@<TRIPOS>MOLECULE
C1=CC=C(C(=C1)C2=C(C(=O)NC2=O)NC3=CC(=C(C=C3)Cl)C(=O)O)Cl
  34   36    0    0    0
SMALL
USER_CHARGES
NO_NAME
@<TRIPOS>ATOM
    1 O1       -0.3249    -0.5291    -1.2066 O.co2  1 <0>      -0.6900
    2 C2       -0.6607     0.1663    -2.1550 C.2    1 <0>       0.5200
    3 O3        0.0867     0.2939    -3.1146 O.co2  1 <0>      -0.6600
    4 C4       -1.9693     0.8459    -2.1442 C.ar   1 <0>      -0.0900
    5 C5       -2.8248     0.7022    -1.0500 C.ar   1 <0>      -0.1100
    6 C6       -4.0533     1.3451    -1.0476 C.ar   1 <0>       0.1600
    7 N7       -4.9123     1.2045     0.0440 N.pl3  1 <0>      -0.6500
    8 C8       -6.0660     1.9562     0.1147 C.2    1 <0>       0.1700
    9 C9       -7.3489     1.4850     0.2146 C.2    1 <0>      -0.1600
   10 C10      -7.7699     0.0689     0.2685 C.ar   1 <0>      -0.0100
   11 C11      -7.5930    -0.6713     1.4389 C.ar   1 <0>      -0.0900
   12 C12      -7.9885    -1.9922     1.4827 C.ar   1 <0>      -0.1100
   13 C13      -8.5597    -2.5845     0.3702 C.ar   1 <0>      -0.1000
   14 C14      -8.7385    -1.8577    -0.7937 C.ar   1 <0>      -0.1100
   15 C15      -8.3523    -0.5336    -0.8502 C.ar   1 <0>      -0.0100
   16 Cl16     -8.5773     0.3771    -2.3109 Cl     1 <0>      -0.0600
   17 C17      -8.2270     2.6698     0.2585 C.2    1 <0>       0.5800
   18 O18      -9.4386     2.6506     0.3462 O.2    1 <0>      -0.4600
   19 N19      -7.4639     3.7740     0.1857 N.am   1 <0>      -0.6900
   20 C20      -6.1653     3.4352     0.1044 C.2    1 <0>       0.5400
   21 O21      -5.2331     4.2090     0.0265 O.2    1 <0>      -0.4300
   22 C22      -4.4303     2.1305    -2.1322 C.ar   1 <0>      -0.1500
   23 C23      -3.5847     2.2737    -3.2157 C.ar   1 <0>      -0.0900
   24 C24      -2.3562     1.6421    -3.2276 C.ar   1 <0>      -0.0300
   25 Cl25     -1.2984     1.8258    -4.5918 Cl     1 <0>      -0.0500
   26 H26      -2.5308     0.0921    -0.2088 H      1 <0>       0.1400
   27 H27      -4.6974     0.5780     0.7527 H      1 <0>       0.4200
   28 H28      -7.1470    -0.2108     2.3081 H      1 <0>       0.1300
   29 H29      -7.8517    -2.5656     2.3876 H      1 <0>       0.1300
   30 H30      -8.8671    -3.6190     0.4103 H      1 <0>       0.1300
   31 H31      -9.1850    -2.3262    -1.6583 H      1 <0>       0.1400
   32 H32      -7.8010     4.6835     0.1947 H      1 <0>       0.4300
   33 H33      -5.3878     2.6300    -2.1276 H      1 <0>       0.1100
   34 H34      -3.8838     2.8846    -4.0546 H      1 <0>       0.1300
@<TRIPOS>BOND
   1    1    2 ar
   2    2    3 ar
   3    2    4 1
   4    4   24 ar
   5    4    5 ar
   6    5    6 ar
   7    5   26 1
   8    6    7 1
   9    6   22 ar
  10    7    8 1
  11    7   27 1
  12    8   20 1
  13    8    9 2
  14    9   10 1
  15    9   17 1
  16   10   15 ar
  17   10   11 ar
  18   11   12 ar
  19   11   28 1
  20   12   13 ar
  21   12   29 1
  22   13   14 ar
  23   13   30 1
  24   14   15 ar
  25   14   31 1
  26   15   16 1
  27   17   18 2
  28   17   19 am
  29   19   20 am
  30   19   32 1
  31   20   21 2
  32   22   23 ar
  33   22   33 1
  34   23   24 ar
  35   23   34 1
  36   24   25 1


@<TRIPOS>MOLECULE
COC1=CC=CC=C1C2=C(C(=O)NC2=O)NC3=CC(=C(C(=C3)Cl)O)Cl
  36   38    0    0    0
SMALL
USER_CHARGES
NO_NAME
@<TRIPOS>ATOM
    1 C1       -0.6223     1.2326     0.3099 C.3    1 <0>       0.0300
    2 O2       -0.4010    -0.1759     0.2143 O.3    1 <0>      -0.3100
    3 C3       -1.4993    -0.9749     0.2274 C.ar   1 <0>       0.1500
    4 C4       -2.7633    -0.4177     0.3242 C.ar   1 <0>      -0.2100
    5 C5       -3.8807    -1.2320     0.3379 C.ar   1 <0>      -0.0700
    6 C6       -3.7455    -2.6071     0.2548 C.ar   1 <0>      -0.1600
    7 C7       -2.4935    -3.1782     0.1574 C.ar   1 <0>      -0.0500
    8 C8       -1.3582    -2.3665     0.1372 C.ar   1 <0>      -0.0500
    9 C9       -0.0142    -2.9717     0.0331 C.2    1 <0>      -0.1600
   10 C10       0.5599    -3.5076    -1.0904 C.2    1 <0>       0.1700
   11 N11      -0.0018    -3.5885    -2.3482 N.pl3  1 <0>      -0.6300
   12 C12      -0.1491    -4.8313    -2.9687 C.ar   1 <0>       0.0400
   13 C13       0.1256    -5.9970    -2.2640 C.ar   1 <0>      -0.0800
   14 C14      -0.0203    -7.2259    -2.8785 C.ar   1 <0>      -0.1400
   15 Cl15      0.3228    -8.6824    -1.9984 Cl     1 <0>      -0.0900
   16 C16      -0.4417    -7.2962    -4.1993 C.ar   1 <0>       0.2700
   17 O17      -0.5859    -8.5064    -4.8032 O.3    1 <0>      -0.6800
   18 C18      -0.7163    -6.1322    -4.9039 C.ar   1 <0>      -0.1400
   19 Cl19     -1.2437    -6.2215    -6.5554 Cl     1 <0>      -0.0900
   20 C20      -0.5759    -4.9027    -4.2892 C.ar   1 <0>      -0.0900
   21 C21       1.9034    -3.9817    -0.6856 C.2    1 <0>       0.5400
   22 O22       2.7159    -4.5174    -1.4119 O.2    1 <0>      -0.4400
   23 N23       2.0714    -3.7178     0.6220 N.am   1 <0>      -0.6900
   24 C24       0.9777    -3.1128     1.1166 C.2    1 <0>       0.5800
   25 O25       0.8273    -2.7506     2.2665 O.2    1 <0>      -0.4700
   26 H26       0.3351     1.7531     0.2881 H      1 <0>       0.1000
   27 H27      -1.2342     1.5621    -0.5298 H      1 <0>       0.0600
   28 H28      -1.1367     1.4570     1.2443 H      1 <0>       0.0600
   29 H29      -2.8765     0.6544     0.3893 H      1 <0>       0.1300
   30 H30      -4.8644    -0.7928     0.4142 H      1 <0>       0.1200
   31 H31      -4.6238    -3.2356     0.2666 H      1 <0>       0.1300
   32 H32      -2.3922    -4.2515     0.0932 H      1 <0>       0.1300
   33 H33      -0.2943    -2.7823    -2.8015 H      1 <0>       0.4100
   34 H34       0.4535    -5.9425    -1.2364 H      1 <0>       0.1000
   35 H35      -0.7899    -3.9972    -4.8374 H      1 <0>       0.1100
   36 H36       2.8681    -3.9293     1.1332 H      1 <0>       0.4200
@<TRIPOS>BOND
   1    1    2 1
   2    1   26 1
   3    1   27 1
   4    1   28 1
   5    2    3 1
   6    3    8 ar
   7    3    4 ar
   8    4    5 ar
   9    4   29 1
  10    5    6 ar
  11    5   30 1
  12    6    7 ar
  13    6   31 1
  14    7    8 ar
  15    7   32 1
  16    8    9 1
  17    9   24 1
  18    9   10 2
  19   10   11 1
  20   10   21 1
  21   11   12 1
  22   11   33 1
  23   12   20 ar
  24   12   13 ar
  25   13   14 ar
  26   13   34 1
  27   14   15 1
  28   14   16 ar
  29   16   17 1
  30   16   18 ar
  31   18   19 1
  32   18   20 ar
  33   20   35 1
  34   21   22 2
  35   21   23 am
  36   23   24 am
  37   23   36 1
  38   24   25 2


@<TRIPOS>MOLECULE
C1=CC=C(C(=C1)C2=C(C(=O)NC2=O)NC3=CC(=C(C(=C3)Cl)O)Cl)[N+](=O)[O-]
  34   36    0    0    0
SMALL
USER_CHARGES
NO_NAME
@<TRIPOS>ATOM
    1 O1        0.3203    -0.3709    -0.3351 O.2    1 <0>      -0.4300
    2 C2        0.1089     0.8238    -0.2936 C.2    1 <0>       0.5400
    3 N3       -1.0971     1.4126    -0.3758 N.am   1 <0>      -0.6800
    4 C4       -0.9672     2.7479    -0.2948 C.2    1 <0>       0.6000
    5 O5       -1.8773     3.5519    -0.3376 O.2    1 <0>      -0.4800
    6 C6        0.4628     3.0756    -0.1444 C.2    1 <0>      -0.2000
    7 C7        1.0532     4.4254    -0.0190 C.ar   1 <0>       0.0700
    8 C8        1.7216     5.0017    -1.1008 C.ar   1 <0>      -0.1100
    9 C9        2.2697     6.2617    -0.9771 C.ar   1 <0>      -0.0700
   10 C10       2.1581     6.9540     0.2156 C.ar   1 <0>      -0.1200
   11 C11       1.4971     6.3884     1.2921 C.ar   1 <0>      -0.0500
   12 C12       0.9396     5.1319     1.1803 C.ar   1 <0>      -0.0200
   13 N13       0.2327     4.5287     2.3325 N.pl3  1 <0>       0.0300
   14 O14       0.1429     5.1422     3.3809 O.2    1 <0>      -0.1600
   15 O15      -0.2592     3.4190     2.2321 O.2    1 <0>      -0.1400
   16 C16       1.1361     1.8817    -0.1372 C.2    1 <0>       0.2000
   17 N17       2.4966     1.7010    -0.0174 N.pl3  1 <0>      -0.6300
   18 C18       3.0086     0.9210     1.0221 C.ar   1 <0>       0.0300
   19 C19       2.1630     0.4491     2.0187 C.ar   1 <0>      -0.0700
   20 C20       2.6702    -0.3227     3.0463 C.ar   1 <0>      -0.1400
   21 Cl21      1.6140    -0.9124     4.2915 Cl     1 <0>      -0.0900
   22 C22       4.0241    -0.6272     3.0831 C.ar   1 <0>       0.2800
   23 O23       4.5225    -1.3874     4.0948 O.3    1 <0>      -0.6700
   24 C24       4.8694    -0.1566     2.0876 C.ar   1 <0>      -0.1500
   25 Cl25      6.5621    -0.5390     2.1342 Cl     1 <0>      -0.0900
   26 C26       4.3630     0.6118     1.0570 C.ar   1 <0>      -0.0800
   27 H27      -1.9390     0.9418    -0.4786 H      1 <0>       0.4300
   28 H28       1.8098     4.4622    -2.0322 H      1 <0>       0.1500
   29 H29       2.7873     6.7085    -1.8130 H      1 <0>       0.1500
   30 H30       2.5889     7.9401     0.3072 H      1 <0>       0.1500
   31 H31       1.4142     6.9339     2.2205 H      1 <0>       0.1600
   32 H32       3.0989     2.1154    -0.6549 H      1 <0>       0.4100
   33 H33       1.1097     0.6859     1.9903 H      1 <0>       0.1100
   34 H34       5.0207     0.9776     0.2824 H      1 <0>       0.1100
@<TRIPOS>BOND
   1    1    2 2
   2    2   16 1
   3    2    3 am
   4    3    4 am
   5    3   27 1
   6    4    5 2
   7    4    6 1
   8    6    7 1
   9    6   16 2
  10    7   12 ar
  11    7    8 ar
  12    8    9 ar
  13    8   28 1
  14    9   10 ar
  15    9   29 1
  16   10   11 ar
  17   10   30 1
  18   11   12 ar
  19   11   31 1
  20   12   13 1
  21   13   14 2
  22   13   15 2
  23   16   17 1
  24   17   18 1
  25   17   32 1
  26   18   26 ar
  27   18   19 ar
  28   19   20 ar
  29   19   33 1
  30   20   21 1
  31   20   22 ar
  32   22   23 1
  33   22   24 ar
  34   24   25 1
  35   24   26 ar
  36   26   34 1


@<TRIPOS>MOLECULE
CCS(=O)C1=CC=C(C=C1)C2=COC3=C2C=C(C=C3)C4=NN=C(O4)C
  41   44    0    0    0
SMALL
USER_CHARGES
NO_NAME
@<TRIPOS>ATOM
    1 C1       -0.0187     1.5258     0.0104 C.3    1 <0>      -0.1400
    2 C2        0.0021    -0.0041     0.0020 C.3    1 <0>      -0.4600
    3 S3        0.8511    -0.5891    -1.4904 S.o    1 <0>       1.3300
    4 O4        0.0364    -0.3393    -2.6275 O.2    1 <0>      -0.8500
    5 C5        0.7772    -2.3419    -1.3272 C.ar   1 <0>      -0.4600
    6 C6        1.7899    -3.0158    -0.6684 C.ar   1 <0>      -0.0400
    7 C7        1.7375    -4.3886    -0.5375 C.ar   1 <0>      -0.1300
    8 C8        0.6609    -5.0962    -1.0702 C.ar   1 <0>       0.0200
    9 C9        0.5985    -6.5711    -0.9324 C.2    1 <0>      -0.1400
   10 C10       1.5773    -7.4589    -1.2210 C.2    1 <0>       0.0400
   11 O11       1.1530    -8.7078    -0.9680 O.3    1 <0>      -0.1800
   12 C12      -0.1136    -8.7079    -0.5045 C.ar   1 <0>       0.0800
   13 C13      -0.9796    -9.7218    -0.1082 C.ar   1 <0>      -0.1000
   14 C14      -2.2378    -9.4210     0.3286 C.ar   1 <0>      -0.0600
   15 C15      -2.6754    -8.0927     0.3848 C.ar   1 <0>      -0.0400
   16 C16      -4.0402    -7.7827     0.8605 C.2    1 <0>       0.2100
   17 N17      -4.5785    -6.5896     0.9579 N.2    1 <0>      -0.2700
   18 N18      -5.7787    -6.7011     1.4081 N.2    1 <0>      -0.2800
   19 C19      -6.0518    -7.9590     1.6140 C.2    1 <0>       0.1700
   20 C20      -7.3518    -8.5130     2.1375 C.3    1 <0>      -0.0600
   21 O21      -4.9660    -8.6731     1.2695 O.3    1 <0>      -0.2200
   22 C22      -1.8234    -7.0638    -0.0075 C.ar   1 <0>      -0.0100
   23 C23      -0.5412    -7.3708    -0.4463 C.ar   1 <0>      -0.1200
   24 C24      -0.3569    -4.4116    -1.7326 C.ar   1 <0>      -0.1200
   25 C25      -0.2961    -3.0383    -1.8532 C.ar   1 <0>      -0.0500
   26 H26       1.0039     1.9031     0.0027 H      1 <0>       0.0700
   27 H27      -0.5459     1.8868    -0.8726 H      1 <0>       0.0600
   28 H28      -0.5289     1.8773     0.9072 H      1 <0>       0.0700
   29 H29       0.5293    -0.3651     0.8851 H      1 <0>       0.1200
   30 H30      -1.0205    -0.3814     0.0098 H      1 <0>       0.0900
   31 H31       2.6235    -2.4666    -0.2561 H      1 <0>       0.1400
   32 H32       2.5290    -4.9138    -0.0236 H      1 <0>       0.1300
   33 H33       2.5556    -7.2015    -1.5995 H      1 <0>       0.2200
   34 H34      -0.6555   -10.7513    -0.1466 H      1 <0>       0.1500
   35 H35      -2.9020   -10.2161     0.6336 H      1 <0>       0.1500
   36 H36      -8.0183    -8.7270     1.3020 H      1 <0>       0.1000
   37 H37      -7.1583    -9.4311     2.6924 H      1 <0>       0.1000
   38 H38      -7.8191    -7.7816     2.7969 H      1 <0>       0.1100
   39 H39      -2.1545    -6.0366     0.0328 H      1 <0>       0.1500
   40 H40      -1.1932    -4.9547    -2.1475 H      1 <0>       0.1300
   41 H41      -1.0842    -2.5068    -2.3659 H      1 <0>       0.1300
@<TRIPOS>BOND
   1    1    2 1
   2    1   26 1
   3    1   27 1
   4    1   28 1
   5    2    3 1
   6    2   29 1
   7    2   30 1
   8    3    4 2
   9    3    5 1
  10    5   25 ar
  11    5    6 ar
  12    6    7 ar
  13    6   31 1
  14    7    8 ar
  15    7   32 1
  16    8    9 1
  17    8   24 ar
  18    9   23 1
  19    9   10 2
  20   10   11 1
  21   10   33 1
  22   11   12 1
  23   12   23 ar
  24   12   13 ar
  25   13   14 ar
  26   13   34 1
  27   14   15 ar
  28   14   35 1
  29   15   16 1
  30   15   22 ar
  31   16   21 1
  32   16   17 2
  33   17   18 1
  34   18   19 2
  35   19   20 1
  36   19   21 1
  37   20   36 1
  38   20   37 1
  39   20   38 1
  40   22   23 ar
  41   22   39 1
  42   24   25 ar
  43   24   40 1
  44   25   41 1


@<TRIPOS>MOLECULE
C1=CC=C(C=C1)C2=CC3=NC=CN=C3N2
24    26    1     0     0
SMALL
USER_CHARGES
@<TRIPOS>ATOM
1      C1     -0.0171    1.4127    0.0098 C.2      1 ZINC000001586981   -0.1600
2      C2      1.2687    1.8432   -0.0002 C.2      1 ZINC000001586981    0.1500
3      C3      1.6966    3.2586    0.0038 C.ar     1 ZINC000001586981   -0.0400
4      C4      0.7443    4.2786    0.0247 C.ar     1 ZINC000001586981   -0.0900
5      C5      1.1502    5.5972    0.0287 C.ar     1 ZINC000001586981   -0.1100
6      C6      2.4980    5.9092    0.0122 C.ar     1 ZINC000001586981   -0.1100
7      C7      3.4472    4.9028   -0.0086 C.ar     1 ZINC000001586981   -0.1100
8      C8      3.0546    3.5802   -0.0075 C.ar     1 ZINC000001586981   -0.1100
9      N9      2.1132    0.7562   -0.0141 N.pl3    1 ZINC000001586981   -0.5600
10     C10     1.3589   -0.3936   -0.0130 C.ar     1 ZINC000001586981    0.2400
11     N11     1.6694   -1.6823   -0.0235 N.ar     1 ZINC000001586981   -0.4500
12     C12     0.7111   -2.5907   -0.0199 C.ar     1 ZINC000001586981    0.0900
13     C13    -0.6225   -2.2099   -0.0052 C.ar     1 ZINC000001586981    0.0400
14     N14    -0.9527   -0.9331    0.0050 N.ar     1 ZINC000001586981   -0.4000
15     C15     0.0021   -0.0041    0.0020 C.ar     1 ZINC000001586981    0.0600
16     H16    -0.8979    2.0376    0.0256 H        1 ZINC000001586981    0.1600
17     H17    -0.3081    4.0363    0.0373 H        1 ZINC000001586981    0.1300
18     H18     0.4143    6.3875    0.0445 H        1 ZINC000001586981    0.1300
19     H19     2.8106    6.9430    0.0151 H        1 ZINC000001586981    0.1300
20     H20     4.4977    5.1530   -0.0218 H        1 ZINC000001586981    0.1300
21     H21     3.7965    2.7955   -0.0233 H        1 ZINC000001586981    0.1200
22     H22     3.0824    0.7950   -0.0236 H        1 ZINC000001586981    0.4200
23     H23     0.9680   -3.6396   -0.0289 H        1 ZINC000001586981    0.1800
24     H24    -1.3956   -2.9640   -0.0024 H        1 ZINC000001586981    0.1800
@<TRIPOS>BOND
1     1     15    1
2     1     2     2
3     1     16    1
4     2     3     1
5     2     9     1
6     3     8     ar
7     3     4     ar
8     4     5     ar
9     4     17    1
10    5     6     ar
11    5     18    1
12    6     7     ar
13    6     19    1
14    7     8     ar
15    7     20    1
16    8     21    1
17    9     10    1
18    9     22    1
19    10    15    ar
20    10    11    ar
21    11    12    ar
22    12    13    ar
23    12    23    1
24    13    14    ar
25    13    24    1
26    14    15    ar
@<TRIPOS>SUBSTRUCTURE
1   ZINC000001586981 1     RESIDUE    1   A     ZIN   1


@<TRIPOS>MOLECULE
CC1=CC(=O)N(C1=O)CCC2=CNC3=CC=CC=C32
  33   35    0    0    0
SMALL
USER_CHARGES
NO_NAME
@<TRIPOS>ATOM
    1 C1       -0.0184     1.5028     0.0103 C.3    1 <0>      -0.1000
    2 C2        0.0021    -0.0041     0.0020 C.2    1 <0>      -0.1100
    3 C3        0.0085    -0.7990    -1.0807 C.2    1 <0>      -0.1600
    4 C4        0.0304    -2.1937    -0.5869 C.2    1 <0>       0.5400
    5 O5        0.0418    -3.1916    -1.2783 O.2    1 <0>      -0.4500
    6 N6        0.0359    -2.1682     0.7580 N.am   1 <0>      -0.5900
    7 C7        0.0571    -3.3489     1.6250 C.3    1 <0>       0.1200
    8 C8        1.5068    -3.7391     1.9200 C.3    1 <0>      -0.0600
    9 C9        1.5286    -4.9536     2.8119 C.2    1 <0>      -0.1800
   10 C10       1.6232    -4.9593     4.1509 C.2    1 <0>       0.0600
   11 N11       1.6122    -6.2469     4.6140 N.pl3  1 <0>      -0.5900
   12 C12       1.5075    -7.1235     3.5573 C.ar   1 <0>       0.0900
   13 C13       1.4541    -8.5102     3.4651 C.ar   1 <0>      -0.1300
   14 C14       1.3465    -9.1103     2.2294 C.ar   1 <0>      -0.1000
   15 C15       1.2907    -8.3447     1.0732 C.ar   1 <0>      -0.1400
   16 C16       1.3416    -6.9807     1.1406 C.ar   1 <0>      -0.0700
   17 C17       1.4441    -6.3516     2.3826 C.ar   1 <0>      -0.1000
   18 C18       0.0254    -0.8926     1.1849 C.2    1 <0>       0.5500
   19 O19       0.0269    -0.5318     2.3441 O.2    1 <0>      -0.4500
   20 H20       1.0042     1.8801     0.0026 H      1 <0>       0.0900
   21 H21      -0.5455     1.8639    -0.8728 H      1 <0>       0.0900
   22 H22      -0.5286     1.8543     0.9071 H      1 <0>       0.0800
   23 H23      -0.0008    -0.4814    -2.1129 H      1 <0>       0.1800
   24 H24      -0.4557    -3.1224     2.5599 H      1 <0>       0.1000
   25 H25      -0.4472    -4.1759     1.1251 H      1 <0>       0.1000
   26 H26       2.0195    -3.9655     0.9852 H      1 <0>       0.0800
   27 H27       2.0111    -2.9121     2.4199 H      1 <0>       0.0800
   28 H28       1.6975    -4.0782     4.7710 H      1 <0>       0.1700
   29 H29       1.6695    -6.5038     5.5476 H      1 <0>       0.4200
   30 H30       1.4971    -9.1147     4.3591 H      1 <0>       0.1200
   31 H31       1.3055   -10.1873     2.1599 H      1 <0>       0.1300
   32 H32       1.2068    -8.8307     0.1124 H      1 <0>       0.1200
   33 H33       1.2976    -6.3914     0.2367 H      1 <0>       0.1200
@<TRIPOS>BOND
   1    1    2 1
   2    1   20 1
   3    1   21 1
   4    1   22 1
   5    2   18 1
   6    2    3 2
   7    3    4 1
   8    3   23 1
   9    4    5 2
  10    4    6 am
  11    6    7 1
  12    6   18 am
  13    7    8 1
  14    7   24 1
  15    7   25 1
  16    8    9 1
  17    8   26 1
  18    8   27 1
  19    9   17 1
  20    9   10 2
  21   10   11 1
  22   10   28 1
  23   11   12 1
  24   11   29 1
  25   12   17 ar
  26   12   13 ar
  27   13   14 ar
  28   13   30 1
  29   14   15 ar
  30   14   31 1
  31   15   16 ar
  32   15   32 1
  33   16   17 ar
  34   16   33 1
  35   18   19 2


@<TRIPOS>MOLECULE
C1=CC(=CC=C1C=CC(=O)NCCC2=CNC3=C2C=C(C=C3)O)O
42    44    1     0     0
SMALL
USER_CHARGES
@<TRIPOS>ATOM
1      O1      0.0021   -0.0041    0.0020 O.2      1 ZINC000001587152   -0.5400
2      C2     -0.0144    1.2130    0.0087 C.2      1 ZINC000001587152    0.5500
3      C3      1.2421    1.9614    0.0007 C.2      1 ZINC000001587152   -0.2200
4      C4      2.4200    1.3025   -0.0141 C.2      1 ZINC000001587152   -0.0100
5      C5      3.6829    2.0548   -0.0221 C.ar     1 ZINC000001587152   -0.0900
6      C6      3.6668    3.4543   -0.0085 C.ar     1 ZINC000001587152   -0.0800
7      C7      4.8523    4.1541   -0.0157 C.ar     1 ZINC000001587152   -0.1500
8      C8      6.0641    3.4731   -0.0362 C.ar     1 ZINC000001587152    0.1200
9      O9      7.2302    4.1677   -0.0432 O.3      1 ZINC000001587152   -0.5000
10     C10     6.0856    2.0831   -0.0493 C.ar     1 ZINC000001587152   -0.1500
11     C11     4.9058    1.3739   -0.0374 C.ar     1 ZINC000001587152   -0.0800
12     N12    -1.1906    1.8709    0.0179 N.am     1 ZINC000001587152   -0.7300
13     C13    -2.4493    1.1213    0.0198 C.3      1 ZINC000001587152    0.1200
14     C14    -3.6256    2.0996    0.0307 C.3      1 ZINC000001587152   -0.0500
15     C15    -4.9203    1.3285    0.0326 C.2      1 ZINC000001587152   -0.1700
16     C16    -5.6564    1.0016   -1.0414 C.2      1 ZINC000001587152    0.0700
17     N17    -6.7646    0.3004   -0.6518 N.pl3    1 ZINC000001587152   -0.5900
18     C18    -6.7686    0.1550    0.7196 C.ar     1 ZINC000001587152    0.0900
19     C19    -7.6412   -0.4577    1.6123 C.ar     1 ZINC000001587152   -0.1100
20     C20    -7.3714   -0.4371    2.9627 C.ar     1 ZINC000001587152   -0.1200
21     C21    -6.2289    0.1934    3.4480 C.ar     1 ZINC000001587152    0.0800
22     O22    -5.9773    0.2040    4.7844 O.3      1 ZINC000001587152   -0.5000
23     C23    -5.3501    0.8075    2.5780 C.ar     1 ZINC000001587152   -0.1000
24     C24    -5.6107    0.7881    1.2063 C.ar     1 ZINC000001587152   -0.0800
25     H25     1.2274    3.0413    0.0067 H        1 ZINC000001587152    0.1300
26     H26     2.4347    0.2226   -0.0200 H        1 ZINC000001587152    0.1400
27     H27     2.7259    3.9843    0.0071 H        1 ZINC000001587152    0.1300
28     H28     4.8409    5.2340   -0.0056 H        1 ZINC000001587152    0.1300
29     H29     7.5784    4.3606    0.8381 H        1 ZINC000001587152    0.3900
30     H30     7.0297    1.5588   -0.0652 H        1 ZINC000001587152    0.1300
31     H31     4.9236    0.2941   -0.0472 H        1 ZINC000001587152    0.1300
32     H32    -1.2038    2.8408    0.0232 H        1 ZINC000001587152    0.4000
33     H33    -2.5028    0.4987   -0.8734 H        1 ZINC000001587152    0.0700
34     H34    -2.4943    0.4891    0.9065 H        1 ZINC000001587152    0.0700
35     H35    -3.5721    2.7221    0.9238 H        1 ZINC000001587152    0.0800
36     H36    -3.5806    2.7318   -0.8561 H        1 ZINC000001587152    0.0800
37     H37    -5.4105    1.2552   -2.0620 H        1 ZINC000001587152    0.1700
38     H38    -7.4459   -0.0431   -1.2507 H        1 ZINC000001587152    0.4200
39     H39    -8.5305   -0.9494    1.2467 H        1 ZINC000001587152    0.1300
40     H40    -8.0526   -0.9143    3.6516 H        1 ZINC000001587152    0.1300
41     H41    -5.4540   -0.5486    5.0921 H        1 ZINC000001587152    0.3900
42     H42    -4.4642    1.2963    2.9557 H        1 ZINC000001587152    0.1300
@<TRIPOS>BOND
1     1     2     2
2     2     3     1
3     2     12    am
4     3     4     2
5     3     25    1
6     4     5     1
7     4     26    1
8     5     11    ar
9     5     6     ar
10    6     7     ar
11    6     27    1
12    7     8     ar
13    7     28    1
14    8     9     1
15    8     10    ar
16    9     29    1
17    10    11    ar
18    10    30    1
19    11    31    1
20    12    13    1
21    12    32    1
22    13    14    1
23    13    33    1
24    13    34    1
25    14    15    1
26    14    35    1
27    14    36    1
28    15    24    1
29    15    16    2
30    16    17    1
31    16    37    1
32    17    18    1
33    17    38    1
34    18    24    ar
35    18    19    ar
36    19    20    ar
37    19    39    1
38    20    21    ar
39    20    40    1
40    21    22    1
41    21    23    ar
42    22    41    1
43    23    24    ar
44    23    42    1
@<TRIPOS>SUBSTRUCTURE
1   ZINC000001587152 1     RESIDUE    1   A     ZIN   1


@<TRIPOS>MOLECULE
CN1C=C(C2=C1C=CC(=C2)Br)C3=C(C(=O)NC3=O)C4=COC5=CC=CC=C54
40    44    1     0     0
SMALL
USER_CHARGES
@<TRIPOS>ATOM
1      C1     -0.0178    1.4608    0.0101 C.3      1 ZINC000040949469    0.0700
2      N2      0.0021   -0.0041    0.0020 N.pl3    1 ZINC000040949469   -0.4700
3      C3      0.0079   -0.7750   -1.1187 C.2      1 ZINC000040949469    0.1100
4      C4      0.0281   -2.0938   -0.7691 C.2      1 ZINC000040949469   -0.1400
5      C5      0.0406   -3.2470   -1.6837 C.2      1 ZINC000040949469   -0.0200
6      C6      1.1180   -3.7109   -2.4286 C.2      1 ZINC000040949469   -0.0400
7      C7      2.4792   -3.1471   -2.4632 C.2      1 ZINC000040949469   -0.1400
8      C8      3.4413   -3.2654   -1.5084 C.2      1 ZINC000040949469    0.0600
9      O9      4.5495   -2.6163   -1.8969 O.3      1 ZINC000040949469   -0.1800
10     C10     4.3828   -2.0444   -3.1073 C.ar     1 ZINC000040949469    0.0500
11     C11     5.2133   -1.2828   -3.9197 C.ar     1 ZINC000040949469   -0.1000
12     C12     4.7549   -0.8243   -5.1367 C.ar     1 ZINC000040949469   -0.0900
13     C13     3.4678   -1.1149   -5.5625 C.ar     1 ZINC000040949469   -0.1300
14     C14     2.6286   -1.8689   -4.7699 C.ar     1 ZINC000040949469   -0.0700
15     C15     3.0829   -2.3430   -3.5434 C.ar     1 ZINC000040949469   -0.1000
16     C16     0.6233   -4.8830   -3.1786 C.2      1 ZINC000040949469    0.5600
17     O17     1.2783   -5.5621   -3.9441 O.2      1 ZINC000040949469   -0.4400
18     N18    -0.6713   -5.0738   -2.8735 N.am     1 ZINC000040949469   -0.6900
19     C19    -1.0890   -4.1505   -1.9910 C.2      1 ZINC000040949469    0.5600
20     O20    -2.2093   -4.0673   -1.5289 O.2      1 ZINC000040949469   -0.4400
21     C21     0.0354   -2.1369    0.7039 C.ar     1 ZINC000040949469   -0.0700
22     C22     0.0538   -3.1678    1.6403 C.ar     1 ZINC000040949469   -0.0400
23     C23     0.0552   -2.8675    2.9860 C.ar     1 ZINC000040949469   -0.1100
24     Br24    0.0807   -4.2629    4.2620 Br       1 ZINC000040949469   -0.0500
25     C25     0.0384   -1.5455    3.4082 C.ar     1 ZINC000040949469   -0.0700
26     C26     0.0197   -0.5160    2.4920 C.ar     1 ZINC000040949469   -0.1100
27     C27     0.0236   -0.7984    1.1302 C.ar     1 ZINC000040949469    0.1100
28     H28     1.0048    1.8381    0.0023 H        1 ZINC000040949469    0.0800
29     H29    -0.5450    1.8219   -0.8730 H        1 ZINC000040949469    0.0900
30     H30    -0.5280    1.8123    0.9069 H        1 ZINC000040949469    0.0900
31     H31    -0.0024   -0.4001   -2.1315 H        1 ZINC000040949469    0.1800
32     H32     3.3298   -3.8013   -0.5774 H        1 ZINC000040949469    0.2100
33     H33     6.2176   -1.0496   -3.5981 H        1 ZINC000040949469    0.1300
34     H34     5.4048   -0.2326   -5.7644 H        1 ZINC000040949469    0.1400
35     H35     3.1214   -0.7492   -6.5178 H        1 ZINC000040949469    0.1300
36     H36     1.6258   -2.0945   -5.1016 H        1 ZINC000040949469    0.1200
37     H37    -1.2261   -5.7816   -3.2369 H        1 ZINC000040949469    0.4300
38     H38     0.0664   -4.1973    1.3140 H        1 ZINC000040949469    0.1300
39     H39     0.0397   -1.3213    4.4647 H        1 ZINC000040949469    0.1400
40     H40     0.0061    0.5092    2.8313 H        1 ZINC000040949469    0.1300
@<TRIPOS>BOND
1     1     2     1
2     1     28    1
3     1     29    1
4     1     30    1
5     2     27    1
6     2     3     1
7     3     4     2
8     3     31    1
9     4     5     1
10    4     21    1
11    5     19    1
12    5     6     2
13    6     7     1
14    6     16    1
15    7     15    1
16    7     8     2
17    8     9     1
18    8     32    1
19    9     10    1
20    10    15    ar
21    10    11    ar
22    11    12    ar
23    11    33    1
24    12    13    ar
25    12    34    1
26    13    14    ar
27    13    35    1
28    14    15    ar
29    14    36    1
30    16    17    2
31    16    18    am
32    18    19    am
33    18    37    1
34    19    20    2
35    21    27    ar
36    21    22    ar
37    22    23    ar
38    22    38    1
39    23    24    1
40    23    25    ar
41    25    26    ar
42    25    39    1
43    26    27    ar
44    26    40    1
@<TRIPOS>SUBSTRUCTURE
1   ZINC000040949469 1     RESIDUE    1   A     ZIN   1


@<TRIPOS>MOLECULE
CN1C=C(C2=C1C=CC(=C2)Br)C3=C(C(=O)NC3=O)C4=COC5=C4C=CC(=C5)CO
44    48    1     0     0
SMALL
USER_CHARGES
@<TRIPOS>ATOM
1      C1     -0.0178    1.4608    0.0101 C.3      1 ZINC000040423177    0.0700
2      N2      0.0021   -0.0041    0.0020 N.pl3    1 ZINC000040423177   -0.4700
3      C3      0.0079   -0.7750   -1.1187 C.2      1 ZINC000040423177    0.1100
4      C4      0.0281   -2.0938   -0.7691 C.2      1 ZINC000040423177   -0.1400
5      C5      0.0406   -3.2470   -1.6837 C.2      1 ZINC000040423177   -0.0200
6      C6      1.1180   -3.7109   -2.4286 C.2      1 ZINC000040423177   -0.0400
7      C7      2.4792   -3.1471   -2.4632 C.2      1 ZINC000040423177   -0.1400
8      C8      3.4413   -3.2654   -1.5084 C.2      1 ZINC000040423177    0.0600
9      O9      4.5495   -2.6163   -1.8969 O.3      1 ZINC000040423177   -0.1800
10     C10     4.3828   -2.0444   -3.1073 C.ar     1 ZINC000040423177    0.0500
11     C11     5.2133   -1.2828   -3.9197 C.ar     1 ZINC000040423177   -0.0800
12     C12     4.7549   -0.8243   -5.1367 C.ar     1 ZINC000040423177   -0.0700
13     C13     5.6618    0.0013   -6.0126 C.3      1 ZINC000040423177    0.1200
14     O14     6.3985   -0.8608   -6.8821 O.3      1 ZINC000040423177   -0.5700
15     C15     3.4681   -1.1157   -5.5629 C.ar     1 ZINC000040423177   -0.1100
16     C16     2.6289   -1.8697   -4.7703 C.ar     1 ZINC000040423177   -0.0700
17     C17     3.0829   -2.3430   -3.5434 C.ar     1 ZINC000040423177   -0.1000
18     C18     0.6233   -4.8830   -3.1786 C.2      1 ZINC000040423177    0.5600
19     O19     1.2783   -5.5621   -3.9441 O.2      1 ZINC000040423177   -0.4400
20     N20    -0.6713   -5.0738   -2.8735 N.am     1 ZINC000040423177   -0.6900
21     C21    -1.0890   -4.1505   -1.9910 C.2      1 ZINC000040423177    0.5600
22     O22    -2.2093   -4.0673   -1.5289 O.2      1 ZINC000040423177   -0.4400
23     C23     0.0354   -2.1369    0.7039 C.ar     1 ZINC000040423177   -0.0700
24     C24     0.0538   -3.1678    1.6403 C.ar     1 ZINC000040423177   -0.0400
25     C25     0.0552   -2.8675    2.9860 C.ar     1 ZINC000040423177   -0.1100
26     Br26    0.0807   -4.2629    4.2620 Br       1 ZINC000040423177   -0.0500
27     C27     0.0384   -1.5455    3.4082 C.ar     1 ZINC000040423177   -0.0700
28     C28     0.0197   -0.5160    2.4920 C.ar     1 ZINC000040423177   -0.1100
29     C29     0.0236   -0.7984    1.1302 C.ar     1 ZINC000040423177    0.1100
30     H30     1.0048    1.8381    0.0023 H        1 ZINC000040423177    0.0800
31     H31    -0.5450    1.8219   -0.8730 H        1 ZINC000040423177    0.0900
32     H32    -0.5280    1.8123    0.9069 H        1 ZINC000040423177    0.0900
33     H33    -0.0024   -0.4001   -2.1315 H        1 ZINC000040423177    0.1800
34     H34     3.3298   -3.8013   -0.5774 H        1 ZINC000040423177    0.2200
35     H35     6.2176   -1.0496   -3.5981 H        1 ZINC000040423177    0.1400
36     H36     5.0631    0.6915   -6.6070 H        1 ZINC000040423177    0.0600
37     H37     6.3544    0.5659   -5.3884 H        1 ZINC000040423177    0.0600
38     H38     7.0041   -0.3964   -7.4759 H        1 ZINC000040423177    0.3800
39     H39     3.1219   -0.7505   -6.5185 H        1 ZINC000040423177    0.1300
40     H40     1.6264   -2.0958   -5.1023 H        1 ZINC000040423177    0.1300
41     H41    -1.2261   -5.7816   -3.2369 H        1 ZINC000040423177    0.4300
42     H42     0.0664   -4.1973    1.3140 H        1 ZINC000040423177    0.1300
43     H43     0.0397   -1.3213    4.4647 H        1 ZINC000040423177    0.1400
44     H44     0.0061    0.5092    2.8313 H        1 ZINC000040423177    0.1300
@<TRIPOS>BOND
1     1     2     1
2     1     30    1
3     1     31    1
4     1     32    1
5     2     29    1
6     2     3     1
7     3     4     2
8     3     33    1
9     4     5     1
10    4     23    1
11    5     21    1
12    5     6     2
13    6     7     1
14    6     18    1
15    7     17    1
16    7     8     2
17    8     9     1
18    8     34    1
19    9     10    1
20    10    17    ar
21    10    11    ar
22    11    12    ar
23    11    35    1
24    12    13    1
25    12    15    ar
26    13    14    1
27    13    36    1
28    13    37    1
29    14    38    1
30    15    16    ar
31    15    39    1
32    16    17    ar
33    16    40    1
34    18    19    2
35    18    20    am
36    20    21    am
37    20    41    1
38    21    22    2
39    23    29    ar
40    23    24    ar
41    24    25    ar
42    24    42    1
43    25    26    1
44    25    27    ar
45    27    28    ar
46    27    43    1
47    28    29    ar
48    28    44    1
@<TRIPOS>SUBSTRUCTURE
1   ZINC000040423177 1     RESIDUE    1   A     ZIN   1


@<TRIPOS>MOLECULE
C1CCC2(C1)COC3=C4N2C=C(C(=O)C4=C(C(=C3NCCNC5=CC=CC=N5)F)N)C(=O)O
56    60    1     0     0
SMALL
USER_CHARGES
@<TRIPOS>ATOM
1      N1     -0.0168    1.3902    0.0097 N.pl3    1 ZINC000043203532   -0.8500
2      C2      0.0021   -0.0041    0.0020 C.ar     1 ZINC000043203532    0.2800
3      C3     -1.1800   -0.7169    0.1080 C.ar     1 ZINC000043203532   -0.0300
4      F4     -2.3561   -0.0613    0.2185 F        1 ZINC000043203532   -0.1300
5      C5     -1.1575   -2.1092    0.1004 C.ar     1 ZINC000043203532    0.1700
6      N6     -2.3544   -2.8205    0.2037 N.3      1 ZINC000043203532   -0.6200
7      C7     -3.2585   -2.4938   -0.9071 C.3      1 ZINC000043203532    0.0400
8      C8     -4.5563   -3.2906   -0.7596 C.3      1 ZINC000043203532    0.1300
9      N9     -5.4579   -2.9648   -1.8673 N.pl3    1 ZINC000043203532   -0.7200
10     C10    -6.7068   -3.5699   -1.9480 C.ar     1 ZINC000043203532    0.4100
11     C11    -7.0964   -4.4795   -0.9705 C.ar     1 ZINC000043203532   -0.2400
12     C12    -8.3422   -5.0739   -1.0628 C.ar     1 ZINC000043203532   -0.0300
13     C13    -9.1592   -4.7373   -2.1336 C.ar     1 ZINC000043203532   -0.2400
14     C14    -8.7084   -3.8263   -3.0680 C.ar     1 ZINC000043203532    0.1500
15     N15    -7.5171   -3.2711   -2.9518 N.ar     1 ZINC000043203532   -0.5500
16     C16     0.0451   -2.7980   -0.0097 C.ar     1 ZINC000043203532   -0.0300
17     O17     0.0455   -4.1617   -0.0201 O.3      1 ZINC000043203532   -0.3100
18     C18     1.1245   -4.7852   -0.7275 C.3      1 ZINC000043203532    0.0700
19     C19     2.4442   -4.2487   -0.1780 C.3      1 ZINC000043203532    0.1200
20     C20     2.6463   -4.7334    1.2688 C.3      1 ZINC000043203532   -0.1300
21     C21     3.5457   -5.9873    1.1257 C.3      1 ZINC000043203532   -0.1200
22     C22     4.5079   -5.5899   -0.0216 C.3      1 ZINC000043203532   -0.1200
23     C23     3.6205   -4.7922   -1.0010 C.3      1 ZINC000043203532   -0.1400
24     N24     2.4466   -2.7820   -0.2117 N.pl3    1 ZINC000043203532   -0.4900
25     C25     3.6191   -2.1410   -0.3372 C.2      1 ZINC000043203532    0.1500
26     C26     3.7172   -0.7653   -0.3574 C.2      1 ZINC000043203532   -0.2900
27     C27     5.0228   -0.1136   -0.4956 C.2      1 ZINC000043203532    0.5400
28     O28     6.0377   -0.7911   -0.5943 O.co2    1 ZINC000043203532   -0.7000
29     O29     5.0984    1.1082   -0.5122 O.co2    1 ZINC000043203532   -0.6600
30     C30     2.4878    0.0388   -0.2381 C.2      1 ZINC000043203532    0.4300
31     O31     2.5216    1.2574   -0.2425 O.2      1 ZINC000043203532   -0.4600
32     C32     1.2192   -0.6928   -0.1191 C.ar     1 ZINC000043203532   -0.2500
33     C33     1.2443   -2.1003   -0.1125 C.ar     1 ZINC000043203532    0.2100
34     H34     0.7423    1.8874   -0.3330 H        1 ZINC000043203532    0.4200
35     H35    -0.7907    1.8628    0.3540 H        1 ZINC000043203532    0.4000
36     H36    -2.1821   -3.8136    0.2496 H        1 ZINC000043203532    0.3700
37     H37    -3.4832   -1.4273   -0.8910 H        1 ZINC000043203532    0.1000
38     H38    -2.7802   -2.7502   -1.8523 H        1 ZINC000043203532    0.0500
39     H39    -4.3316   -4.3571   -0.7756 H        1 ZINC000043203532    0.0600
40     H40    -5.0346   -3.0342    0.1857 H        1 ZINC000043203532    0.0800
41     H41    -5.1835   -2.3269   -2.5445 H        1 ZINC000043203532    0.4100
42     H42    -6.4352   -4.7187   -0.1507 H        1 ZINC000043203532    0.1300
43     H43    -8.6716   -5.7841   -0.3188 H        1 ZINC000043203532    0.1300
44     H44   -10.1374   -5.1838   -2.2349 H        1 ZINC000043203532    0.1300
45     H45    -9.3407   -3.5616   -3.9026 H        1 ZINC000043203532    0.1500
46     H46     1.0805   -5.8648   -0.5839 H        1 ZINC000043203532    0.1300
47     H47     1.0487   -4.5518   -1.7896 H        1 ZINC000043203532    0.0700
48     H48     3.1491   -3.9687    1.8609 H        1 ZINC000043203532    0.0800
49     H49     1.6901   -4.9990    1.7195 H        1 ZINC000043203532    0.0800
50     H50     4.0986   -6.1731    2.0465 H        1 ZINC000043203532    0.0700
51     H51     2.9523   -6.8584    0.8478 H        1 ZINC000043203532    0.0700
52     H52     5.3156   -4.9639    0.3575 H        1 ZINC000043203532    0.0800
53     H53     4.9092   -6.4790   -0.5081 H        1 ZINC000043203532    0.0700
54     H54     3.2530   -5.4474   -1.7909 H        1 ZINC000043203532    0.0800
55     H55     4.1877   -3.9675   -1.4324 H        1 ZINC000043203532    0.0900
56     H56     4.5225   -2.7261   -0.4258 H        1 ZINC000043203532    0.1700
@<TRIPOS>BOND
1     1     2     1
2     1     34    1
3     1     35    1
4     2     32    ar
5     2     3     ar
6     3     4     1
7     3     5     ar
8     5     6     1
9     5     16    ar
10    6     7     1
11    6     36    1
12    7     8     1
13    7     37    1
14    7     38    1
15    8     9     1
16    8     39    1
17    8     40    1
18    9     10    1
19    9     41    1
20    10    15    ar
21    10    11    ar
22    11    12    ar
23    11    42    1
24    12    13    ar
25    12    43    1
26    13    14    ar
27    13    44    1
28    14    15    ar
29    14    45    1
30    16    33    ar
31    16    17    1
32    17    18    1
33    18    19    1
34    18    46    1
35    18    47    1
36    19    23    1
37    19    20    1
38    19    24    1
39    20    21    1
40    20    48    1
41    20    49    1
42    21    22    1
43    21    50    1
44    21    51    1
45    22    23    1
46    22    52    1
47    22    53    1
48    23    54    1
49    23    55    1
50    24    33    1
51    24    25    1
52    25    26    2
53    25    56    1
54    26    27    1
55    26    30    1
56    27    28    ar
57    27    29    ar
58    30    31    2
59    30    32    1
60    32    33    ar
@<TRIPOS>SUBSTRUCTURE
1   ZINC000043203532 1     RESIDUE    1   A     ZIN   1


@<TRIPOS>MOLECULE
C1=CC=C(C=C1)C2=NN=C(O2)NC3=CC=CC=C3
29    31    1     0     0
SMALL
USER_CHARGES
@<TRIPOS>ATOM
1      C1     -0.0137    1.3821    0.0617 C.ar     1 ZINC000002144682   -0.1400
2      C2      0.0994    0.1416    0.6623 C.ar     1 ZINC000002144682   -0.0900
3      C3      1.3030   -0.5348    0.6321 C.ar     1 ZINC000002144682   -0.1300
4      C4      2.4009    0.0324   -0.0026 C.ar     1 ZINC000002144682    0.1600
5      N5      3.6205   -0.6496   -0.0354 N.pl3    1 ZINC000002144682   -0.6100
6      C6      3.6442   -2.0278    0.0613 C.2      1 ZINC000002144682    0.4100
7      N7      2.6006   -2.8235    0.0736 N.2      1 ZINC000002144682   -0.3200
8      N8      2.9940   -4.0442    0.1746 N.2      1 ZINC000002144682   -0.2500
9      C9      4.3032   -4.0766    0.2308 C.2      1 ZINC000002144682    0.1900
10     C10     5.1441   -5.2858    0.3488 C.ar     1 ZINC000002144682   -0.0200
11     C11     6.5343   -5.1704    0.4035 C.ar     1 ZINC000002144682   -0.0900
12     C12     7.3135   -6.3034    0.5141 C.ar     1 ZINC000002144682   -0.1200
13     C13     6.7202   -7.5521    0.5703 C.ar     1 ZINC000002144682   -0.1000
14     C14     5.3429   -7.6736    0.5162 C.ar     1 ZINC000002144682   -0.1200
15     C15     4.5517   -6.5484    0.4118 C.ar     1 ZINC000002144682   -0.0700
16     O16     4.7424   -2.8010    0.1544 O.3      1 ZINC000002144682   -0.2400
17     C17     2.2838    1.2787   -0.6048 C.ar     1 ZINC000002144682   -0.1500
18     C18     1.0772    1.9497   -0.5709 C.ar     1 ZINC000002144682   -0.0900
19     H19    -0.9574    1.9069    0.0829 H        1 ZINC000002144682    0.1300
20     H20    -0.7545   -0.2986    1.1558 H        1 ZINC000002144682    0.1300
21     H21     1.3908   -1.5034    1.1016 H        1 ZINC000002144682    0.1400
22     H22     4.4502   -0.1554   -0.1261 H        1 ZINC000002144682    0.4300
23     H23     6.9987   -4.1964    0.3589 H        1 ZINC000002144682    0.1300
24     H24     8.3891   -6.2156    0.5565 H        1 ZINC000002144682    0.1300
25     H25     7.3348   -8.4359    0.6566 H        1 ZINC000002144682    0.1300
26     H26     4.8862   -8.6513    0.5602 H        1 ZINC000002144682    0.1400
27     H27     3.4768   -6.6446    0.3696 H        1 ZINC000002144682    0.1400
28     H28     3.1355    1.7227   -1.0987 H        1 ZINC000002144682    0.1300
29     H29     0.9854    2.9185   -1.0392 H        1 ZINC000002144682    0.1300
@<TRIPOS>BOND
1     1     18    ar
2     1     2     ar
3     1     19    1
4     2     3     ar
5     2     20    1
6     3     4     ar
7     3     21    1
8     4     5     1
9     4     17    ar
10    5     6     1
11    5     22    1
12    6     16    1
13    6     7     2
14    7     8     1
15    8     9     2
16    9     10    1
17    9     16    1
18    10    15    ar
19    10    11    ar
20    11    12    ar
21    11    23    1
22    12    13    ar
23    12    24    1
24    13    14    ar
25    13    25    1
26    14    15    ar
27    14    26    1
28    15    27    1
29    17    18    ar
30    17    28    1
31    18    29    1
@<TRIPOS>SUBSTRUCTURE
1   ZINC000002144682 1     RESIDUE    1   A     ZIN   1


@<TRIPOS>MOLECULE
C1=CC(=CC=C1C=C2C(=O)NC(=O)N2)O
  23   24    0    0    0
SMALL
USER_CHARGES
NO_NAME
@<TRIPOS>ATOM
    1 O1        0.3219     0.1767    -1.5414 O.2    1 <0>      -0.5200
    2 C2        0.3166     1.3823    -1.3823 C.2    1 <0>       0.7000
    3 N3       -0.5271     2.2258    -1.9963 N.am   1 <0>      -0.6800
    4 C4       -0.2739     3.4914    -1.6059 C.2    1 <0>       0.5500
    5 O5       -0.8533     4.4982    -1.9691 O.2    1 <0>      -0.4500
    6 C6        0.8431     3.4102    -0.6522 C.2    1 <0>       0.0100
    7 C7        1.4418     4.4352     0.0049 C.2    1 <0>      -0.0200
    8 C8        0.8759     5.7881    -0.0735 C.ar   1 <0>      -0.0900
    9 C9       -0.5118     5.9723    -0.0402 C.ar   1 <0>      -0.0400
   10 C10      -1.0369     7.2427    -0.1141 C.ar   1 <0>      -0.1500
   11 C11      -0.1923     8.3415    -0.2215 C.ar   1 <0>       0.1300
   12 O12      -0.7154     9.5922    -0.2936 O.3    1 <0>      -0.5000
   13 C13       1.1861     8.1645    -0.2550 C.ar   1 <0>      -0.1600
   14 C14       1.7222     6.8989    -0.1760 C.ar   1 <0>      -0.0700
   15 N15       1.1517     2.0458    -0.5633 N.am   1 <0>      -0.6600
   16 H16      -1.2162     1.9643    -2.6269 H      1 <0>       0.4400
   17 H17       2.3346     4.2561     0.5856 H      1 <0>       0.1500
   18 H18      -1.1690     5.1192     0.0428 H      1 <0>       0.1300
   19 H19      -2.1071     7.3859    -0.0889 H      1 <0>       0.1300
   20 H20      -0.8372    10.0178     0.5662 H      1 <0>       0.3900
   21 H21       1.8378     9.0216    -0.3389 H      1 <0>       0.1300
   22 H22       2.7933     6.7625    -0.2017 H      1 <0>       0.1300
   23 H23       1.8473     1.6514    -0.0141 H      1 <0>       0.4400
@<TRIPOS>BOND
   1    1    2 2
   2    2   15 am
   3    2    3 am
   4    3    4 am
   5    3   16 1
   6    4    5 2
   7    4    6 1
   8    6    7 2
   9    6   15 1
  10    7    8 1
  11    7   17 1
  12    8   14 ar
  13    8    9 ar
  14    9   10 ar
  15    9   18 1
  16   10   11 ar
  17   10   19 1
  18   11   12 1
  19   11   13 ar
  20   12   20 1
  21   13   14 ar
  22   13   21 1
  23   14   22 1
  24   15   23 1


@<TRIPOS>MOLECULE
CC1=C(C2=CC=CC=C2N1)C3=C(C(=O)N(C3=O)C)NCCC4=CC=C(C=C4)F
  48   51    0    0    0
SMALL
USER_CHARGES
NO_NAME
@<TRIPOS>ATOM
    1 C1       -0.0184     1.5028     0.0103 C.3    1 <0>      -0.0900
    2 C2        0.0021    -0.0041     0.0020 C.2    1 <0>       0.1100
    3 C3        0.0075    -0.7819    -1.1156 C.2    1 <0>      -0.1100
    4 C4       -0.0055    -0.3152    -2.5149 C.2    1 <0>      -0.1900
    5 C5        1.0841    -0.0451    -3.3006 C.2    1 <0>       0.1800
    6 N6        2.4187    -0.1568    -2.9374 N.pl3  1 <0>      -0.6800
    7 C7        3.4705     0.1729    -3.9024 C.3    1 <0>       0.1200
    8 C8        4.8407    -0.0339    -3.2538 C.3    1 <0>      -0.0900
    9 C9        5.9227     0.3053    -4.2464 C.ar   1 <0>      -0.1000
   10 C10       6.4226    -0.6738    -5.0846 C.ar   1 <0>      -0.0800
   11 C11       7.4149    -0.3639    -5.9952 C.ar   1 <0>      -0.1500
   12 C12       7.9079     0.9279    -6.0683 C.ar   1 <0>       0.1000
   13 F13       8.8775     1.2321    -6.9585 F      1 <0>      -0.1400
   14 C14       7.4060     1.9078    -5.2286 C.ar   1 <0>      -0.1500
   15 C15       6.4104     1.5966    -4.3220 C.ar   1 <0>      -0.0800
   16 C16       0.5575     0.3878    -4.6099 C.2    1 <0>       0.5600
   17 O17       1.2261     0.7132    -5.5706 O.2    1 <0>      -0.4600
   18 N18      -0.7857     0.3617    -4.5614 N.am   1 <0>      -0.5900
   19 C19      -1.6724     0.7245    -5.6697 C.3    1 <0>       0.0800
   20 C20      -1.1970    -0.0522    -3.3502 C.2    1 <0>       0.5700
   21 O21      -2.3525    -0.1802    -2.9985 O.2    1 <0>      -0.4600
   22 C22       0.0296    -2.1806    -0.6540 C.ar   1 <0>      -0.0800
   23 C23       0.0433    -3.4129    -1.3039 C.ar   1 <0>      -0.0700
   24 C24       0.0630    -4.5745    -0.5633 C.ar   1 <0>      -0.1400
   25 C25       0.0691    -4.5211     0.8230 C.ar   1 <0>      -0.1000
   26 C26       0.0556    -3.3094     1.4793 C.ar   1 <0>      -0.1300
   27 C27       0.0357    -2.1253     0.7500 C.ar   1 <0>       0.0900
   28 N28       0.0238    -0.7944     1.1116 N.pl3  1 <0>      -0.5900
   29 H29       1.0042     1.8801     0.0026 H      1 <0>       0.0800
   30 H30      -0.5455     1.8639    -0.8728 H      1 <0>       0.0800
   31 H31      -0.5286     1.8543     0.9071 H      1 <0>       0.0700
   32 H32       2.6552    -0.4533    -2.0446 H      1 <0>       0.4200
   33 H33       3.3797    -0.4749    -4.7743 H      1 <0>       0.0800
   34 H34       3.3677     1.2134    -4.2105 H      1 <0>       0.0800
   35 H35       4.9314     0.6139    -2.3819 H      1 <0>       0.0800
   36 H36       4.9435    -1.0744    -2.9456 H      1 <0>       0.0800
   37 H37       6.0379    -1.6813    -5.0274 H      1 <0>       0.1300
   38 H38       7.8058    -1.1291    -6.6495 H      1 <0>       0.1400
   39 H39       7.7901     2.9157    -5.2845 H      1 <0>       0.1400
   40 H40       6.0186     2.3609    -3.6672 H      1 <0>       0.1300
   41 H41      -1.0742     1.0169    -6.5327 H      1 <0>       0.0900
   42 H42      -2.2947    -0.1310    -5.9321 H      1 <0>       0.0800
   43 H43      -2.3078     1.5574    -5.3690 H      1 <0>       0.0800
   44 H44       0.0383    -3.4574    -2.3830 H      1 <0>       0.1200
   45 H45       0.0733    -5.5312    -1.0643 H      1 <0>       0.1200
   46 H46       0.0842    -5.4381     1.3934 H      1 <0>       0.1300
   47 H47       0.0602    -3.2793     2.5589 H      1 <0>       0.1200
   48 H48       0.0282    -0.4680     2.0250 H      1 <0>       0.4200
@<TRIPOS>BOND
   1    1    2 1
   2    1   29 1
   3    1   30 1
   4    1   31 1
   5    2   28 1
   6    2    3 2
   7    3    4 1
   8    3   22 1
   9    4   20 1
  10    4    5 2
  11    5    6 1
  12    5   16 1
  13    6    7 1
  14    6   32 1
  15    7    8 1
  16    7   33 1
  17    7   34 1
  18    8    9 1
  19    8   35 1
  20    8   36 1
  21    9   15 ar
  22    9   10 ar
  23   10   11 ar
  24   10   37 1
  25   11   12 ar
  26   11   38 1
  27   12   13 1
  28   12   14 ar
  29   14   15 ar
  30   14   39 1
  31   15   40 1
  32   16   17 2
  33   16   18 am
  34   18   19 1
  35   18   20 am
  36   19   41 1
  37   19   42 1
  38   19   43 1
  39   20   21 2
  40   22   27 ar
  41   22   23 ar
  42   23   24 ar
  43   23   44 1
  44   24   25 ar
  45   24   45 1
  46   25   26 ar
  47   25   46 1
  48   26   27 ar
  49   26   47 1
  50   27   28 1
  51   28   48 1


@<TRIPOS>MOLECULE
C1=CC2=C(C=C1Cl)NN=C2NC(=O)CCC(=O)O
  27   28    0    0    0
SMALL
USER_CHARGES
NO_NAME
@<TRIPOS>ATOM
    1 O1        0.0021    -0.0041     0.0020 O.co2  1 <0>      -0.7000
    2 C2       -0.0145     1.2150     0.0087 C.2    1 <0>       0.4900
    3 O3        1.0330     1.8389     0.0021 O.co2  1 <0>      -0.7000
    4 C4       -1.3296     1.9507     0.0190 C.3    1 <0>      -0.1700
    5 C5       -2.4790     0.9408     0.0189 C.3    1 <0>      -0.1100
    6 C6       -3.7941     1.6764     0.0292 C.2    1 <0>       0.5000
    7 O7       -3.8106     2.8893     0.0358 O.2    1 <0>      -0.4900
    8 N8       -4.9521     0.9868     0.0309 N.am   1 <0>      -0.6400
    9 C9       -6.1733     1.6699     0.0404 C.2    1 <0>       0.3300
   10 N10      -6.3314     2.9667     0.0425 N.2    1 <0>      -0.2300
   11 N11      -7.6935     3.2836     0.0528 N.pl3  1 <0>      -0.5000
   12 C12      -8.4257     2.1248     0.0574 C.ar   1 <0>       0.1500
   13 C13      -9.7906     1.8484     0.0672 C.ar   1 <0>      -0.1400
   14 C14     -10.2225     0.5405     0.0694 C.ar   1 <0>       0.0200
   15 Cl15    -11.9241     0.1969     0.0817 Cl     1 <0>      -0.0600
   16 C16      -9.3085    -0.5073     0.0615 C.ar   1 <0>      -0.1600
   17 C17      -7.9665    -0.2587     0.0522 C.ar   1 <0>      -0.0200
   18 C18      -7.5042     1.0603     0.0434 C.ar   1 <0>      -0.1800
   19 H19      -1.3917     2.5717     0.9126 H      1 <0>       0.0700
   20 H20      -1.4001     2.5813    -0.8673 H      1 <0>       0.0700
   21 H21      -2.4169     0.3198    -0.8748 H      1 <0>       0.1000
   22 H22      -2.4085     0.3101     0.9052 H      1 <0>       0.1000
   23 H23      -4.9389     0.0169     0.0256 H      1 <0>       0.4200
   24 H24      -8.0617     4.1810     0.0566 H      1 <0>       0.4400
   25 H25     -10.5075     2.6561     0.0734 H      1 <0>       0.1400
   26 H26      -9.6637    -1.5272     0.0630 H      1 <0>       0.1400
   27 H27      -7.2638    -1.0788     0.0465 H      1 <0>       0.1400
@<TRIPOS>BOND
   1    1    2 ar
   2    2    3 ar
   3    2    4 1
   4    4    5 1
   5    4   19 1
   6    4   20 1
   7    5    6 1
   8    5   21 1
   9    5   22 1
  10    6    7 2
  11    6    8 am
  12    8    9 1
  13    8   23 1
  14    9   18 1
  15    9   10 2
  16   10   11 1
  17   11   12 1
  18   11   24 1
  19   12   18 ar
  20   12   13 ar
  21   13   14 ar
  22   13   25 1
  23   14   15 1
  24   14   16 ar
  25   16   17 ar
  26   16   26 1
  27   17   18 ar
  28   17   27 1


@<TRIPOS>MOLECULE
CCCC(=O)NC1=NNC2=C1C=CC(=C2)Cl
  28   29    0    0    0
SMALL
USER_CHARGES
NO_NAME
@<TRIPOS>ATOM
    1 C1       -0.0187     1.5258     0.0104 C.3    1 <0>      -0.1500
    2 C2        0.0021    -0.0041     0.0020 C.3    1 <0>      -0.1100
    3 C3        0.7421    -0.5109     1.2415 C.3    1 <0>      -0.1400
    4 C4        0.7625    -2.0177     1.2333 C.2    1 <0>       0.5000
    5 O5        0.2369    -2.6264     0.3252 O.2    1 <0>      -0.4900
    6 N6        1.3648    -2.6890     2.2348 N.am   1 <0>      -0.6400
    7 C7        1.3838    -4.0883     2.2271 C.2    1 <0>       0.3200
    8 N8        0.8632    -4.8613     1.3117 N.2    1 <0>      -0.2300
    9 N9        1.0770    -6.2039     1.6399 N.pl3  1 <0>      -0.5000
   10 C10       1.7672    -6.2744     2.8221 C.ar   1 <0>       0.1600
   11 C11       2.2386    -7.3287     3.6004 C.ar   1 <0>      -0.1400
   12 C12       2.9160    -7.0644     4.7701 C.ar   1 <0>       0.0200
   13 Cl13      3.5031    -8.3793     5.7396 Cl     1 <0>      -0.0600
   14 C14       3.1344    -5.7543     5.1816 C.ar   1 <0>      -0.1500
   15 C15       2.6806    -4.7063     4.4342 C.ar   1 <0>      -0.0200
   16 C16       1.9961    -4.9495     3.2401 C.ar   1 <0>      -0.1800
   17 H17       1.0039     1.9031     0.0027 H      1 <0>       0.0600
   18 H18      -0.5459     1.8868    -0.8726 H      1 <0>       0.0600
   19 H19      -0.5289     1.8773     0.9072 H      1 <0>       0.0600
   20 H20      -1.0205    -0.3814     0.0098 H      1 <0>       0.0700
   21 H21       0.5123    -0.3556    -0.8948 H      1 <0>       0.0700
   22 H22       1.7647    -0.1336     1.2338 H      1 <0>       0.1000
   23 H23       0.2319    -0.1594     2.1383 H      1 <0>       0.1000
   24 H24       1.7851    -2.2023     2.9609 H      1 <0>       0.4200
   25 H25       0.7830    -6.9645     1.1146 H      1 <0>       0.4500
   26 H26       2.0734    -8.3493     3.2882 H      1 <0>       0.1400
   27 H27       3.6677    -5.5643     6.1014 H      1 <0>       0.1400
   28 H28       2.8545    -3.6920     4.7618 H      1 <0>       0.1400
@<TRIPOS>BOND
   1    1    2 1
   2    1   17 1
   3    1   18 1
   4    1   19 1
   5    2    3 1
   6    2   20 1
   7    2   21 1
   8    3    4 1
   9    3   22 1
  10    3   23 1
  11    4    5 2
  12    4    6 am
  13    6    7 1
  14    6   24 1
  15    7   16 1
  16    7    8 2
  17    8    9 1
  18    9   10 1
  19    9   25 1
  20   10   16 ar
  21   10   11 ar
  22   11   12 ar
  23   11   26 1
  24   12   13 1
  25   12   14 ar
  26   14   15 ar
  27   14   27 1
  28   15   16 ar
  29   15   28 1


@<TRIPOS>MOLECULE
CN1C=C(C2=C1C=CC(=C2)F)C3=C(C(=O)NC3=O)C4=CC(=CC=C4)NCC(CO)O
50    53    1     0     0
SMALL
USER_CHARGES
@<TRIPOS>ATOM
1      C1     -0.0178    1.4608    0.0101 C.3      1 ZINC000005932684    0.0700
2      N2      0.0021   -0.0041    0.0020 N.pl3    1 ZINC000005932684   -0.4700
3      C3      0.0078   -0.7714   -1.1169 C.2      1 ZINC000005932684    0.1100
4      C4      0.0282   -2.1024   -0.7613 C.2      1 ZINC000005932684   -0.1500
5      C5      0.0408   -3.2561   -1.6695 C.2      1 ZINC000005932684   -0.0200
6      C6      1.1171   -3.7231   -2.4126 C.2      1 ZINC000005932684   -0.0700
7      C7      2.4817   -3.1585   -2.4487 C.ar     1 ZINC000005932684    0.0100
8      C8      2.6965   -1.8757   -2.9593 C.ar     1 ZINC000005932684   -0.1500
9      C9      3.9721   -1.3507   -2.9913 C.ar     1 ZINC000005932684   -0.0700
10     C10     5.0410   -2.0896   -2.5195 C.ar     1 ZINC000005932684   -0.1900
11     C11     4.8383   -3.3675   -2.0092 C.ar     1 ZINC000005932684    0.2200
12     N12     5.9220   -4.1097   -1.5337 N.pl3    1 ZINC000005932684   -0.7400
13     C13     7.2721   -3.5421   -1.5727 C.3      1 ZINC000005932684    0.1000
14     C14     8.2668   -4.5522   -0.9972 C.3      1 ZINC000005932684    0.1000
15     H15     8.2399   -5.4666   -1.5898 H        1 ZINC000005932684    0.1100
16     O16     7.9143   -4.8504    0.3551 O.3      1 ZINC000005932684   -0.5500
17     C17     9.6767   -3.9594   -1.0379 C.3      1 ZINC000005932684    0.0500
18     O18    10.6199   -4.9438   -0.6097 O.3      1 ZINC000005932684   -0.5600
19     C19     3.5606   -3.9024   -1.9674 C.ar     1 ZINC000005932684   -0.1600
20     C20     0.6244   -4.8951   -3.1580 C.2      1 ZINC000005932684    0.5600
21     O21     1.2816   -5.5756   -3.9209 O.2      1 ZINC000005932684   -0.4500
22     N22    -0.6703   -5.0882   -2.8555 N.am     1 ZINC000005932684   -0.6900
23     C23    -1.0920   -4.1642   -1.9752 C.2      1 ZINC000005932684    0.5600
24     O24    -2.2124   -4.0814   -1.5149 O.2      1 ZINC000005932684   -0.4400
25     C25     0.0354   -2.1375    0.7127 C.ar     1 ZINC000005932684   -0.0500
26     C26     0.0542   -3.1646    1.6531 C.ar     1 ZINC000005932684   -0.1100
27     C27     0.0560   -2.8584    2.9990 C.ar     1 ZINC000005932684    0.0800
28     F28     0.0742   -3.8511    3.9152 F        1 ZINC000005932684   -0.1400
29     C29     0.0397   -1.5334    3.4146 C.ar     1 ZINC000005932684   -0.1300
30     C30     0.0206   -0.5088    2.4929 C.ar     1 ZINC000005932684   -0.0900
31     C31     0.0236   -0.7975    1.1323 C.ar     1 ZINC000005932684    0.0800
32     H32     1.0048    1.8381    0.0023 H        1 ZINC000005932684    0.0800
33     H33    -0.5450    1.8219   -0.8730 H        1 ZINC000005932684    0.0900
34     H34    -0.5280    1.8123    0.9069 H        1 ZINC000005932684    0.0900
35     H35    -0.0024   -0.3968   -2.1298 H        1 ZINC000005932684    0.1800
36     H36     1.8642   -1.2953   -3.3292 H        1 ZINC000005932684    0.1200
37     H37     4.1362   -0.3592   -3.3867 H        1 ZINC000005932684    0.1300
38     H38     6.0371   -1.6733   -2.5476 H        1 ZINC000005932684    0.1200
39     H39     5.7807   -5.0009   -1.1778 H        1 ZINC000005932684    0.4100
40     H40     7.5409   -3.3146   -2.6042 H        1 ZINC000005932684    0.0700
41     H41     7.2990   -2.6276   -0.9801 H        1 ZINC000005932684    0.0700
42     H42     7.9174   -4.0812    0.9412 H        1 ZINC000005932684    0.3800
43     H43     9.9115   -3.6500   -2.0564 H        1 ZINC000005932684    0.0600
44     H44     9.7269   -3.0955   -0.3751 H        1 ZINC000005932684    0.0500
45     H45    11.5368   -4.6365   -0.6103 H        1 ZINC000005932684    0.3800
46     H46     3.4011   -4.8943   -1.5712 H        1 ZINC000005932684    0.1200
47     H47    -1.2226   -5.7981   -3.2186 H        1 ZINC000005932684    0.4300
48     H48     0.0670   -4.1953    1.3309 H        1 ZINC000005932684    0.1300
49     H49     0.0416   -1.3037    4.4699 H        1 ZINC000005932684    0.1400
50     H50     0.0076    0.5181    2.8270 H        1 ZINC000005932684    0.1300
@<TRIPOS>BOND
1     1     2     1
2     1     32    1
3     1     33    1
4     1     34    1
5     2     31    1
6     2     3     1
7     3     4     2
8     3     35    1
9     4     5     1
10    4     25    1
11    5     23    1
12    5     6     2
13    6     7     1
14    6     20    1
15    7     19    ar
16    7     8     ar
17    8     9     ar
18    8     36    1
19    9     10    ar
20    9     37    1
21    10    11    ar
22    10    38    1
23    11    12    1
24    11    19    ar
25    12    13    1
26    12    39    1
27    13    14    1
28    13    40    1
29    13    41    1
30    14    15    1
31    14    16    1
32    14    17    1
33    16    42    1
34    17    18    1
35    17    43    1
36    17    44    1
37    18    45    1
38    19    46    1
39    20    21    2
40    20    22    am
41    22    23    am
42    22    47    1
43    23    24    2
44    25    31    ar
45    25    26    ar
46    26    27    ar
47    26    48    1
48    27    28    1
49    27    29    ar
50    29    30    ar
51    29    49    1
52    30    31    ar
53    30    50    1
@<TRIPOS>SUBSTRUCTURE
1   ZINC000005932684 1     RESIDUE    1   A     ZIN   1


@<TRIPOS>MOLECULE
C1C2=C(C3=CC=CC=C3NC1=O)NC4=CC=CC=C24
31    34    1     0     0
SMALL
USER_CHARGES
@<TRIPOS>ATOM
1      O1      0.0021   -0.0041    0.0020 O.2      1 ZINC000001626613   -0.5300
2      C2     -0.0144    1.2087    0.0087 C.2      1 ZINC000001626613    0.5300
3      C3     -1.3428    1.9235    0.0315 C.3      1 ZINC000001626613   -0.0600
4      C4     -1.4358    2.7561   -1.2233 C.2      1 ZINC000001626613   -0.1500
5      C5     -0.5458    3.7163   -1.5813 C.2      1 ZINC000001626613    0.1200
6      N6     -0.9138    4.2505   -2.8009 N.pl3    1 ZINC000001626613   -0.5800
7      C7     -2.0674    3.6602   -3.2320 C.ar     1 ZINC000001626613    0.1100
8      C8     -2.8405    3.8516   -4.3745 C.ar     1 ZINC000001626613   -0.1300
9      C9     -3.9763    3.0693   -4.5020 C.ar     1 ZINC000001626613   -0.0900
10     C10    -4.3418    2.1346   -3.5476 C.ar     1 ZINC000001626613   -0.1500
11     C11    -3.5995    1.9232   -2.4117 C.ar     1 ZINC000001626613   -0.0600
12     C12    -2.4460    2.6999   -2.2569 C.ar     1 ZINC000001626613   -0.1000
13     C13     0.6160    4.1384   -0.7697 C.ar     1 ZINC000001626613   -0.0600
14     C14     0.9699    5.4923   -0.7865 C.ar     1 ZINC000001626613   -0.0900
15     C15     2.0213    5.9467   -0.0207 C.ar     1 ZINC000001626613   -0.1300
16     C16     2.7289    5.0608    0.7732 C.ar     1 ZINC000001626613   -0.0900
17     C17     2.3990    3.7227    0.7870 C.ar     1 ZINC000001626613   -0.1400
18     C18     1.3505    3.2381    0.0025 C.ar     1 ZINC000001626613    0.1800
19     N19     1.1397    1.8708    0.0012 N.am     1 ZINC000001626613   -0.6600
20     H20    -2.1539    1.1957    0.0531 H        1 ZINC000001626613    0.1100
21     H21    -1.4005    2.5686    0.9082 H        1 ZINC000001626613    0.1000
22     H22    -0.4268    4.9402   -3.2786 H        1 ZINC000001626613    0.4200
23     H23    -2.5672    4.5771   -5.1264 H        1 ZINC000001626613    0.1300
24     H24    -4.5987    3.1926   -5.3760 H        1 ZINC000001626613    0.1200
25     H25    -5.2393    1.5539   -3.7014 H        1 ZINC000001626613    0.1200
26     H26    -3.8925    1.1923   -1.6726 H        1 ZINC000001626613    0.1300
27     H27     0.4162    6.1846   -1.4033 H        1 ZINC000001626613    0.1300
28     H28     2.2929    6.9918   -0.0402 H        1 ZINC000001626613    0.1300
29     H29     3.5437    5.4198    1.3845 H        1 ZINC000001626613    0.1300
30     H30     2.9579    3.0414    1.4113 H        1 ZINC000001626613    0.1400
31     H31     1.9395    1.3220   -0.0113 H        1 ZINC000001626613    0.4100
@<TRIPOS>BOND
1     1     2     2
2     2     19    am
3     2     3     1
4     3     4     1
5     3     20    1
6     3     21    1
7     4     12    1
8     4     5     2
9     5     6     1
10    5     13    1
11    6     7     1
12    6     22    1
13    7     12    ar
14    7     8     ar
15    8     9     ar
16    8     23    1
17    9     10    ar
18    9     24    1
19    10    11    ar
20    10    25    1
21    11    12    ar
22    11    26    1
23    13    18    ar
24    13    14    ar
25    14    15    ar
26    14    27    1
27    15    16    ar
28    15    28    1
29    16    17    ar
30    16    29    1
31    17    18    ar
32    17    30    1
33    18    19    1
34    19    31    1
@<TRIPOS>SUBSTRUCTURE
1   ZINC000001626613 1     RESIDUE    1   A     ZIN   1


@<TRIPOS>MOLECULE
C1=CC(=C(C=C1Cl)Cl)C2=NC(=NC=C2C3=NC=CN3)NCCNC4=NC(=C(C=C4)[N+](=O)[O-])N
50    53    1     0     0
SMALL
USER_CHARGES
@<TRIPOS>ATOM
1      N1      0.2838    0.9596   -1.1027 N.pl3    1 ZINC000044136098   -0.8200
2      C2      0.2070   -0.4279   -1.1271 C.ar     1 ZINC000044136098    0.5200
3      N3     -0.9333   -1.0269   -0.8179 N.ar     1 ZINC000044136098   -0.5900
4      C4     -1.0479   -2.3468   -0.8291 C.ar     1 ZINC000044136098    0.4900
5      N5     -2.2632   -2.9346   -0.4979 N.pl3    1 ZINC000044136098   -0.7000
6      C6     -2.3982   -4.3933   -0.5079 C.3      1 ZINC000044136098    0.1100
7      C7     -3.8247   -4.7762   -0.1088 C.3      1 ZINC000044136098    0.1300
8      N8     -3.9598   -6.2349   -0.1187 N.pl3    1 ZINC000044136098   -0.6900
9      C9     -5.1690   -6.8197    0.2108 C.ar     1 ZINC000044136098    0.5800
10     N10    -6.1943   -6.0407    0.5274 N.ar     1 ZINC000044136098   -0.5600
11     C11    -7.3686   -6.5539    0.8491 C.ar     1 ZINC000044136098    0.2100
12     C12    -7.5253   -7.9427    0.8535 C.ar     1 ZINC000044136098   -0.1700
13     C13    -8.8200   -8.5590    1.2062 C.2      1 ZINC000044136098    0.2500
14     N14    -9.0457   -9.8465    1.3533 N.2      1 ZINC000044136098   -0.4600
15     C15   -10.3315  -10.0357    1.6733 C.2      1 ZINC000044136098   -0.0200
16     C16   -10.9374   -8.8328    1.7304 C.2      1 ZINC000044136098   -0.0400
17     N17    -9.9862   -7.8899    1.4411 N.pl3    1 ZINC000044136098   -0.5700
18     C18    -6.4127   -8.7394    0.5114 C.ar     1 ZINC000044136098    0.3000
19     C19    -6.5186  -10.2161    0.4982 C.ar     1 ZINC000044136098   -0.0300
20     C20    -7.4275  -10.8452   -0.3523 C.ar     1 ZINC000044136098   -0.0100
21     C21    -7.5221  -12.2214   -0.3606 C.ar     1 ZINC000044136098   -0.1100
22     C22    -6.7170  -12.9790    0.4733 C.ar     1 ZINC000044136098   -0.0100
23     Cl23   -6.8417  -14.7104    0.4565 Cl       1 ZINC000044136098   -0.0600
24     C24    -5.8125  -12.3610    1.3201 C.ar     1 ZINC000044136098   -0.1100
25     C25    -5.7049  -10.9846    1.3330 C.ar     1 ZINC000044136098    0.0100
26     Cl26   -4.5706  -10.2106    2.3951 Cl       1 ZINC000044136098   -0.0500
27     N27    -5.2684   -8.1398    0.1952 N.ar     1 ZINC000044136098   -0.5400
28     C28     0.0342   -3.1496   -1.1690 C.ar     1 ZINC000044136098   -0.2800
29     C29     1.2417   -2.5551   -1.4978 C.ar     1 ZINC000044136098    0.0600
30     C30     1.3261   -1.1727   -1.4812 C.ar     1 ZINC000044136098   -0.2200
31     N31     2.5965   -0.4963   -1.8261 N.pl3    1 ZINC000044136098    0.0500
32     O32     2.5799    0.5486   -2.4518 O.2      1 ZINC000044136098   -0.1900
33     O33     3.6587   -0.9845   -1.4842 O.2      1 ZINC000044136098   -0.1600
34     H34     1.1377    1.4005   -1.2346 H        1 ZINC000044136098    0.4200
35     H35    -0.5171    1.4872   -0.9578 H        1 ZINC000044136098    0.4100
36     H36    -3.0218   -2.3789   -0.2602 H        1 ZINC000044136098    0.4100
37     H37    -2.1871   -4.7709   -1.5084 H        1 ZINC000044136098    0.0800
38     H38    -1.6935   -4.8283    0.2008 H        1 ZINC000044136098    0.0800
39     H39    -4.0358   -4.3986    0.8917 H        1 ZINC000044136098    0.0800
40     H40    -4.5294   -4.3412   -0.8175 H        1 ZINC000044136098    0.0800
41     H41    -3.2011   -6.7906   -0.3565 H        1 ZINC000044136098    0.4200
42     H42    -8.1961   -5.9089    1.1054 H        1 ZINC000044136098    0.1700
43     H43   -10.8035  -10.9900    1.8547 H        1 ZINC000044136098    0.1700
44     H44   -11.9753   -8.6471    1.9642 H        1 ZINC000044136098    0.1800
45     H45   -10.1180   -6.9296    1.4045 H        1 ZINC000044136098    0.4200
46     H46    -8.0564  -10.2559   -1.0031 H        1 ZINC000044136098    0.1300
47     H47    -8.2260  -12.7091   -1.0187 H        1 ZINC000044136098    0.1400
48     H48    -5.1871  -12.9568    1.9684 H        1 ZINC000044136098    0.1400
49     H49    -0.0648   -4.2251   -1.1765 H        1 ZINC000044136098    0.1500
50     H50     2.0979   -3.1567   -1.7652 H        1 ZINC000044136098    0.1600
@<TRIPOS>BOND
1     1     2     1
2     1     34    1
3     1     35    1
4     2     30    ar
5     2     3     ar
6     3     4     ar
7     4     5     1
8     4     28    ar
9     5     6     1
10    5     36    1
11    6     7     1
12    6     37    1
13    6     38    1
14    7     8     1
15    7     39    1
16    7     40    1
17    8     9     1
18    8     41    1
19    9     27    ar
20    9     10    ar
21    10    11    ar
22    11    12    ar
23    11    42    1
24    12    13    1
25    12    18    ar
26    13    17    1
27    13    14    2
28    14    15    1
29    15    16    2
30    15    43    1
31    16    17    1
32    16    44    1
33    17    45    1
34    18    19    1
35    18    27    ar
36    19    25    ar
37    19    20    ar
38    20    21    ar
39    20    46    1
40    21    22    ar
41    21    47    1
42    22    23    1
43    22    24    ar
44    24    25    ar
45    24    48    1
46    25    26    1
47    28    29    ar
48    28    49    1
49    29    30    ar
50    29    50    1
51    30    31    1
52    31    32    2
53    31    33    2
@<TRIPOS>SUBSTRUCTURE
1   ZINC000044136098 1     RESIDUE    1   A     ZIN   1


@<TRIPOS>MOLECULE
CN1C=C(C2=CC=CC=C21)C3=C(C(=O)NC3=O)C4=C5CC(CCN5C6=CC=CC=C64)CN(C)C
63    68    1     0     0
SMALL
USER_CHARGES
@<TRIPOS>ATOM
1      C1     -0.0178    1.4608    0.0101 C.3      1 ZINC000000591953    0.0800
2      N2      0.0021   -0.0041    0.0020 N.pl3    1 ZINC000000591953   -0.4800
3      C3      0.0078   -0.7756   -1.1193 C.2      1 ZINC000000591953    0.0900
4      C4      0.0272   -2.0937   -0.7697 C.2      1 ZINC000000591953   -0.1400
5      C5      0.0390   -3.2475   -1.6846 C.2      1 ZINC000000591953   -0.0100
6      C6      1.1165   -3.7121   -2.4297 C.2      1 ZINC000000591953   -0.0500
7      C7      2.4773   -3.1505   -2.4636 C.2      1 ZINC000000591953   -0.1000
8      C8      2.9412   -2.1815   -3.3057 C.2      1 ZINC000000591953    0.0900
9      C9      2.1411   -1.4878   -4.3838 C.3      1 ZINC000000591953   -0.0500
10     C10     3.1187   -0.7833   -5.3320 C.3      1 ZINC000000591953   -0.1200
11     H11     3.6531   -1.5270   -5.9232 H        1 ZINC000000591953    0.1100
12     C12     2.3443    0.1511   -6.2638 C.3      1 ZINC000000591953   -0.0100
13     N13     3.2652    0.7339   -7.2488 N.4      1 ZINC000000591953   -0.3900
14     H14     4.0286    1.1865   -6.7688 H        1 ZINC000000591953    0.4200
15     C15     3.7926   -0.3290   -8.1149 C.3      1 ZINC000000591953   -0.0600
16     C16     2.5471    1.7207   -8.0665 C.3      1 ZINC000000591953   -0.0500
17     C17     4.1192    0.0290   -4.5048 C.3      1 ZINC000000591953   -0.1400
18     C18     5.0611   -0.9225   -3.7625 C.3      1 ZINC000000591953    0.1100
19     N19     4.2598   -1.9190   -3.0352 N.pl3    1 ZINC000000591953   -0.4800
20     C20     4.6888   -2.7143   -2.0082 C.ar     1 ZINC000000591953    0.1100
21     C21     5.9260   -2.8252   -1.3769 C.ar     1 ZINC000000591953   -0.1300
22     C22     6.0282   -3.7484   -0.3498 C.ar     1 ZINC000000591953   -0.0900
23     C23     4.9600   -4.5347    0.0461 C.ar     1 ZINC000000591953   -0.1400
24     C24     3.7205   -4.4444   -0.5650 C.ar     1 ZINC000000591953   -0.0600
25     C25     3.5968   -3.5156   -1.5980 C.ar     1 ZINC000000591953   -0.0800
26     C26     0.6203   -4.8839   -3.1806 C.2      1 ZINC000000591953    0.5600
27     O27     1.2740   -5.5635   -3.9466 O.2      1 ZINC000000591953   -0.4500
28     N28    -0.6746   -5.0727   -2.8750 N.am     1 ZINC000000591953   -0.6900
29     C29    -1.0904   -4.1494   -1.9916 C.2      1 ZINC000000591953    0.5500
30     O30    -2.2107   -4.0648   -1.5293 O.2      1 ZINC000000591953   -0.4400
31     C31     0.0340   -2.1368    0.7032 C.ar     1 ZINC000000591953   -0.0700
32     C32     0.0519   -3.1678    1.6397 C.ar     1 ZINC000000591953   -0.0700
33     C33     0.0535   -2.8677    2.9846 C.ar     1 ZINC000000591953   -0.1300
34     C34     0.0369   -1.5466    3.4072 C.ar     1 ZINC000000591953   -0.0900
35     C35     0.0190   -0.5165    2.4917 C.ar     1 ZINC000000591953   -0.1300
36     C36     0.0236   -0.7983    1.1297 C.ar     1 ZINC000000591953    0.1000
37     H37     1.0048    1.8381    0.0023 H        1 ZINC000000591953    0.0700
38     H38    -0.5450    1.8219   -0.8730 H        1 ZINC000000591953    0.0800
39     H39    -0.5280    1.8123    0.9069 H        1 ZINC000000591953    0.0900
40     H40    -0.0015   -0.4009   -2.1322 H        1 ZINC000000591953    0.1700
41     H41     1.5570   -2.2226   -4.9379 H        1 ZINC000000591953    0.1000
42     H42     1.4746   -0.7535   -3.9314 H        1 ZINC000000591953    0.1000
43     H43     1.5683   -0.4130   -6.7812 H        1 ZINC000000591953    0.1400
44     H44     1.8852    0.9484   -5.6793 H        1 ZINC000000591953    0.1400
45     H45     2.9678   -0.8179   -8.6334 H        1 ZINC000000591953    0.1300
46     H46     4.4759    0.1034   -8.8457 H        1 ZINC000000591953    0.1300
47     H47     4.3253   -1.0612   -7.5081 H        1 ZINC000000591953    0.1200
48     H48     2.1558    2.5093   -7.4239 H        1 ZINC000000591953    0.1200
49     H49     3.2304    2.1531   -8.7974 H        1 ZINC000000591953    0.1300
50     H50     1.7224    1.2317   -8.5850 H        1 ZINC000000591953    0.1200
51     H51     4.6999    0.6720   -5.1662 H        1 ZINC000000591953    0.0800
52     H52     3.5802    0.6427   -3.7831 H        1 ZINC000000591953    0.0900
53     H53     5.7084   -1.4277   -4.4793 H        1 ZINC000000591953    0.0800
54     H54     5.6685   -0.3568   -3.0560 H        1 ZINC000000591953    0.1000
55     H55     6.7680   -2.2184   -1.6756 H        1 ZINC000000591953    0.1300
56     H56     6.9740   -3.8590    0.1597 H        1 ZINC000000591953    0.1300
57     H57     5.0971   -5.2384    0.8538 H        1 ZINC000000591953    0.1300
58     H58     2.8893   -5.0596   -0.2537 H        1 ZINC000000591953    0.1300
59     H59    -1.2305   -5.7798   -3.2380 H        1 ZINC000000591953    0.4300
60     H60     0.0642   -4.1972    1.3134 H        1 ZINC000000591953    0.1200
61     H61     0.0674   -3.6649    3.7131 H        1 ZINC000000591953    0.1300
62     H62     0.0376   -1.3230    4.4638 H        1 ZINC000000591953    0.1300
63     H63     0.0062    0.5086    2.8315 H        1 ZINC000000591953    0.1200
@<TRIPOS>BOND
1     1     2     1
2     1     37    1
3     1     38    1
4     1     39    1
5     2     36    1
6     2     3     1
7     3     4     2
8     3     40    1
9     4     5     1
10    4     31    1
11    5     29    1
12    5     6     2
13    6     7     1
14    6     26    1
15    7     25    1
16    7     8     2
17    8     19    1
18    8     9     1
19    9     10    1
20    9     41    1
21    9     42    1
22    10    11    1
23    10    12    1
24    10    17    1
25    12    13    1
26    12    43    1
27    12    44    1
28    13    14    1
29    13    15    1
30    13    16    1
31    15    45    1
32    15    46    1
33    15    47    1
34    16    48    1
35    16    49    1
36    16    50    1
37    17    18    1
38    17    51    1
39    17    52    1
40    18    19    1
41    18    53    1
42    18    54    1
43    19    20    1
44    20    25    ar
45    20    21    ar
46    21    22    ar
47    21    55    1
48    22    23    ar
49    22    56    1
50    23    24    ar
51    23    57    1
52    24    25    ar
53    24    58    1
54    26    27    2
55    26    28    am
56    28    29    am
57    28    59    1
58    29    30    2
59    31    36    ar
60    31    32    ar
61    32    33    ar
62    32    60    1
63    33    34    ar
64    33    61    1
65    34    35    ar
66    34    62    1
67    35    36    ar
68    35    63    1
@<TRIPOS>SUBSTRUCTURE
1   ZINC000000591953 1     RESIDUE    1   A     ZIN   1


@<TRIPOS>MOLECULE
CN1C=C(C2=CC=CC=C21)C3=C(C(=O)NC3=O)C4=C5CN(CCN5C6=CC=CC=C64)C(=S)N
54    59    1     0     0
SMALL
USER_CHARGES
@<TRIPOS>ATOM
1      C1      0.0002    1.4733    0.0170 C.3      1 ZINC000049066775    0.0700
2      N2      0.0191    0.0084    0.0121 N.pl3    1 ZINC000049066775   -0.4700
3      C3      0.0206   -0.7656   -1.1076 C.2      1 ZINC000049066775    0.0900
4      C4      0.0404   -2.0829   -0.7553 C.2      1 ZINC000049066775   -0.1400
5      C5      0.0483   -3.2387   -1.6677 C.2      1 ZINC000049066775   -0.0200
6      C6      1.1230   -3.7055   -2.4155 C.2      1 ZINC000049066775   -0.0400
7      C7      2.4840   -3.1448   -2.4552 C.2      1 ZINC000049066775   -0.1000
8      C8      2.9458   -2.1787   -3.3002 C.2      1 ZINC000049066775    0.0800
9      C9      2.1476   -1.4898   -4.3851 C.3      1 ZINC000049066775    0.1600
10     N10     2.9597   -0.3609   -4.8730 N.am     1 ZINC000049066775   -0.5800
11     C11     2.4048    0.8448   -5.1077 C.2      1 ZINC000049066775    0.5800
12     N12     1.0712    1.0057   -4.9978 N.am     1 ZINC000049066775   -0.8000
13     S13     3.3940    2.1717   -5.5454 S.2      1 ZINC000049066775   -0.6200
14     C14     4.3950   -0.5919   -5.0951 C.3      1 ZINC000049066775    0.0900
15     C15     5.0660   -0.9124   -3.7569 C.3      1 ZINC000049066775    0.1000
16     N16     4.2645   -1.9115   -3.0343 N.pl3    1 ZINC000049066775   -0.4700
17     C17     4.6968   -2.7074   -2.0080 C.ar     1 ZINC000049066775    0.1100
18     C18     5.9365   -2.8168   -1.3812 C.ar     1 ZINC000049066775   -0.1300
19     C19     6.0430   -3.7392   -0.3538 C.ar     1 ZINC000049066775   -0.0900
20     C20     4.9767   -4.5260    0.0464 C.ar     1 ZINC000049066775   -0.1400
21     C21     3.7350   -4.4370   -0.5603 C.ar     1 ZINC000049066775   -0.0600
22     C22     3.6067   -3.5084   -1.5929 C.ar     1 ZINC000049066775   -0.0800
23     C23     0.6235   -4.8787   -3.1621 C.2      1 ZINC000049066775    0.5600
24     O24     1.2741   -5.5603   -3.9289 O.2      1 ZINC000049066775   -0.4400
25     N25    -0.6704   -5.0660   -2.8516 N.am     1 ZINC000049066775   -0.6900
26     C26    -1.0826   -4.1406   -1.9688 C.2      1 ZINC000049066775    0.5500
27     O27    -2.2013   -4.0543   -1.5029 O.2      1 ZINC000049066775   -0.4400
28     C28     0.0522   -2.1229    0.7177 C.ar     1 ZINC000049066775   -0.0700
29     C29     0.0727   -3.1518    1.6564 C.ar     1 ZINC000049066775   -0.0700
30     C30     0.0791   -2.8488    3.0006 C.ar     1 ZINC000049066775   -0.1400
31     C31     0.0647   -1.5268    3.4204 C.ar     1 ZINC000049066775   -0.1000
32     C32     0.0443   -0.4987    2.5028 C.ar     1 ZINC000049066775   -0.1200
33     C33     0.0440   -0.7834    1.1414 C.ar     1 ZINC000049066775    0.1000
34     H34     1.0230    1.8499    0.0050 H        1 ZINC000049066775    0.0700
35     H35    -0.5298    1.8328   -0.8650 H        1 ZINC000049066775    0.0800
36     H36    -0.5067    1.8270    0.9148 H        1 ZINC000049066775    0.0900
37     H37     0.0080   -0.3930   -2.1212 H        1 ZINC000049066775    0.1600
38     H38     1.9516   -2.1859   -5.2006 H        1 ZINC000049066775    0.1100
39     H39     1.2068   -1.1210   -3.9764 H        1 ZINC000049066775    0.1000
40     H40     0.5189    0.2742   -4.6804 H        1 ZINC000049066775    0.3900
41     H41     0.6637    1.8531   -5.2361 H        1 ZINC000049066775    0.4400
42     H42     4.5273   -1.4304   -5.7789 H        1 ZINC000049066775    0.1000
43     H43     4.8459    0.3032   -5.5235 H        1 ZINC000049066775    0.1500
44     H44     6.0651   -1.3093   -3.9372 H        1 ZINC000049066775    0.1100
45     H45     5.1383   -0.0034   -3.1597 H        1 ZINC000049066775    0.0900
46     H46     6.7769   -2.2096   -1.6834 H        1 ZINC000049066775    0.1300
47     H47     6.9907   -3.8488    0.1524 H        1 ZINC000049066775    0.1200
48     H48     5.1172   -5.2290    0.8541 H        1 ZINC000049066775    0.1200
49     H49     2.9054   -5.0529   -0.2458 H        1 ZINC000049066775    0.1300
50     H50    -1.2280   -5.7735   -3.2112 H        1 ZINC000049066775    0.4300
51     H51     0.0832   -4.1819    1.3322 H        1 ZINC000049066775    0.1200
52     H52     0.0950   -3.6445    3.7308 H        1 ZINC000049066775    0.1300
53     H53     0.0692   -1.3010    4.4765 H        1 ZINC000049066775    0.1300
54     H54     0.0333    0.5271    2.8404 H        1 ZINC000049066775    0.1200
@<TRIPOS>BOND
1     1     2     1
2     1     34    1
3     1     35    1
4     1     36    1
5     2     33    1
6     2     3     1
7     3     4     2
8     3     37    1
9     4     5     1
10    4     28    1
11    5     26    1
12    5     6     2
13    6     7     1
14    6     23    1
15    7     22    1
16    7     8     2
17    8     16    1
18    8     9     1
19    9     10    1
20    9     38    1
21    9     39    1
22    10    11    am
23    10    14    1
24    11    12    am
25    11    13    2
26    12    40    1
27    12    41    1
28    14    15    1
29    14    42    1
30    14    43    1
31    15    16    1
32    15    44    1
33    15    45    1
34    16    17    1
35    17    22    ar
36    17    18    ar
37    18    19    ar
38    18    46    1
39    19    20    ar
40    19    47    1
41    20    21    ar
42    20    48    1
43    21    22    ar
44    21    49    1
45    23    24    2
46    23    25    am
47    25    26    am
48    25    50    1
49    26    27    2
50    28    33    ar
51    28    29    ar
52    29    30    ar
53    29    51    1
54    30    31    ar
55    30    52    1
56    31    32    ar
57    31    53    1
58    32    33    ar
59    32    54    1
@<TRIPOS>SUBSTRUCTURE
1   ZINC000049066775 1     RESIDUE    1   A     ZIN   1


@<TRIPOS>MOLECULE
C1CNCCC1NC(=O)C2=C(C=NN2)NC(=O)C3=C(C=CC=C3Cl)Cl
43    45    1     0     0
SMALL
USER_CHARGES
@<TRIPOS>ATOM
1      O1      0.0021   -0.0041    0.0020 O.2      1 ZINC000016052857   -0.5300
2      C2     -0.0144    1.2117    0.0087 C.2      1 ZINC000016052857    0.6200
3      N3      1.1435    1.9014    0.0014 N.am     1 ZINC000016052857   -0.7200
4      C4      2.4220    1.1863   -0.0147 C.3      1 ZINC000016052857    0.1400
5      C5      2.7986    0.8429   -1.4588 C.3      1 ZINC000016052857   -0.1600
6      C6      4.1714    0.1673   -1.4753 C.3      1 ZINC000016052857    0.0000
7      N7      5.1751    1.0766   -0.9093 N.4      1 ZINC000016052857   -0.5100
8      H8      6.0871    0.6494   -0.9706 H        1 ZINC000016052857    0.4300
9      H9      5.1745    1.9418   -1.4285 H        1 ZINC000016052857    0.4300
10     C10     4.8596    1.3533    0.4973 C.3      1 ZINC000016052857    0.0000
11     C11     3.5133    2.0746    0.5896 C.3      1 ZINC000016052857   -0.1600
12     C12    -1.3017    1.9318    0.0187 C.2      1 ZINC000016052857   -0.0500
13     N13    -1.4682    3.2403    0.0208 N.2      1 ZINC000016052857   -0.2400
14     N14    -2.7196    3.5295    0.0295 N.pl3    1 ZINC000016052857   -0.3600
15     C15    -3.4637    2.3937    0.0337 C.2      1 ZINC000016052857   -0.0200
16     C16    -2.5949    1.3478    0.0217 C.2      1 ZINC000016052857    0.0900
17     N17    -2.9102   -0.0191    0.0201 N.am     1 ZINC000016052857   -0.6200
18     C18    -4.1990   -0.4134    0.0319 C.2      1 ZINC000016052857    0.5700
19     O19    -5.0883    0.4157    0.0438 O.2      1 ZINC000016052857   -0.5000
20     C20    -4.5309   -1.8523    0.0302 C.ar     1 ZINC000016052857   -0.1200
21     C21    -4.6821   -2.5395    1.2376 C.ar     1 ZINC000016052857    0.0000
22     Cl22   -4.4808   -1.7038    2.7458 Cl       1 ZINC000016052857   -0.0400
23     C23    -4.9925   -3.8851    1.2279 C.ar     1 ZINC000016052857   -0.1000
24     C24    -5.1533   -4.5528    0.0271 C.ar     1 ZINC000016052857   -0.0700
25     C25    -5.0053   -3.8794   -1.1721 C.ar     1 ZINC000016052857   -0.1000
26     C26    -4.7011   -2.5324   -1.1788 C.ar     1 ZINC000016052857    0.0000
27     Cl27   -4.5163   -1.6893   -2.6850 Cl       1 ZINC000016052857   -0.0400
28     H28     1.1303    2.8713    0.0067 H        1 ZINC000016052857    0.4100
29     H29     2.3341    0.2694    0.5681 H        1 ZINC000016052857    0.1100
30     H30     2.0545    0.1655   -1.8778 H        1 ZINC000016052857    0.1200
31     H31     2.8353    1.7564   -2.0524 H        1 ZINC000016052857    0.0900
32     H32     4.1335   -0.7461   -0.8817 H        1 ZINC000016052857    0.1300
33     H33     4.4426   -0.0787   -2.5020 H        1 ZINC000016052857    0.1400
34     H34     4.8070    0.4146    1.0488 H        1 ZINC000016052857    0.1400
35     H35     5.6388    1.9830    0.9269 H        1 ZINC000016052857    0.1400
36     H36     3.5648    3.0136    0.0386 H        1 ZINC000016052857    0.1000
37     H37     3.2800    2.2775    1.6349 H        1 ZINC000016052857    0.1200
38     H38    -3.0811    4.4297    0.0332 H        1 ZINC000016052857    0.4600
39     H39    -4.5419    2.3326    0.0410 H        1 ZINC000016052857    0.2100
40     H40    -2.2008   -0.6805    0.0106 H        1 ZINC000016052857    0.4300
41     H41    -5.1097   -4.4176    2.1602 H        1 ZINC000016052857    0.1500
42     H42    -5.3954   -5.6053    0.0259 H        1 ZINC000016052857    0.1500
43     H43    -5.1324   -4.4075   -2.1056 H        1 ZINC000016052857    0.1500
@<TRIPOS>BOND
1     1     2     2
2     2     3     am
3     2     12    1
4     3     4     1
5     3     28    1
6     4     11    1
7     4     5     1
8     4     29    1
9     5     6     1
10    5     30    1
11    5     31    1
12    6     7     1
13    6     32    1
14    6     33    1
15    7     8     1
16    7     9     1
17    7     10    1
18    10    11    1
19    10    34    1
20    10    35    1
21    11    36    1
22    11    37    1
23    12    16    1
24    12    13    2
25    13    14    1
26    14    15    1
27    14    38    1
28    15    16    2
29    15    39    1
30    16    17    1
31    17    18    am
32    17    40    1
33    18    19    2
34    18    20    1
35    20    26    ar
36    20    21    ar
37    21    22    1
38    21    23    ar
39    23    24    ar
40    23    41    1
41    24    25    ar
42    24    42    1
43    25    26    ar
44    25    43    1
45    26    27    1
@<TRIPOS>SUBSTRUCTURE
1   ZINC000016052857 1     RESIDUE    1   A     ZIN   1


@<TRIPOS>MOLECULE
CC1=CC2=C(C3=CC(=C(C=C13)OC)OC)C(=O)NC2=O
  33   35    0    0    0
SMALL
USER_CHARGES
NO_NAME
@<TRIPOS>ATOM
    1 C1       -0.0173     1.4248     0.0099 C.3    1 <0>       0.0200
    2 O2        0.0021    -0.0041     0.0020 O.3    1 <0>      -0.3000
    3 C3       -1.1998    -0.6372     0.0101 C.ar   1 <0>       0.1400
    4 C4       -1.2448    -2.0412     0.0088 C.ar   1 <0>       0.1400
    5 O5       -0.0855    -2.7499    -0.0006 O.3    1 <0>      -0.3000
    6 C6       -0.1960    -4.1746    -0.0015 C.3    1 <0>       0.0200
    7 C7       -2.4383    -2.7017     0.0172 C.ar   1 <0>      -0.1900
    8 C8       -3.6398    -1.9725     0.0269 C.ar   1 <0>      -0.0300
    9 C9       -4.8815    -2.6283     0.0363 C.ar   1 <0>      -0.0400
   10 C10      -4.9328    -4.1344     0.0354 C.3    1 <0>      -0.1200
   11 C11      -6.0418    -1.9105     0.0465 C.ar   1 <0>      -0.0700
   12 C12      -6.0191    -0.5152     0.0475 C.ar   1 <0>      -0.1200
   13 C13      -4.7990     0.1740     0.0379 C.ar   1 <0>      -0.1300
   14 C14      -5.1387     1.6085     0.0419 C.2    1 <0>       0.5800
   15 O15      -4.3420     2.5256     0.0354 O.2    1 <0>      -0.4600
   16 N16      -6.4781     1.7326     0.0531 N.am   1 <0>      -0.6800
   17 C17      -7.0712     0.5253     0.0571 C.2    1 <0>       0.5800
   18 O18      -8.2686     0.3232     0.0660 O.2    1 <0>      -0.4600
   19 C19      -3.5927    -0.5513     0.0278 C.ar   1 <0>       0.0200
   20 C20      -2.3497     0.0984     0.0250 C.ar   1 <0>      -0.1900
   21 H21       1.0053     1.8021     0.0021 H      1 <0>       0.1100
   22 H22      -0.5445     1.7859    -0.8732 H      1 <0>       0.0600
   23 H23      -0.5275     1.7763     0.9067 H      1 <0>       0.0600
   24 H24      -0.7299    -4.4981     0.8921 H      1 <0>       0.0600
   25 H25      -0.7430    -4.4960    -0.8879 H      1 <0>       0.0600
   26 H26       0.8004    -4.6163    -0.0094 H      1 <0>       0.1100
   27 H27      -2.4599    -3.7815     0.0161 H      1 <0>       0.1500
   28 H28      -4.9370    -4.4984     1.0629 H      1 <0>       0.0800
   29 H29      -5.8387    -4.4668    -0.4715 H      1 <0>       0.0800
   30 H30      -4.0598    -4.5275    -0.4857 H      1 <0>       0.0700
   31 H31      -6.9894    -2.4286     0.0536 H      1 <0>       0.1400
   32 H32      -6.9524     2.5787     0.0578 H      1 <0>       0.4300
   33 H33      -2.3024     1.1773     0.0304 H      1 <0>       0.1600
@<TRIPOS>BOND
   1    1    2 1
   2    1   21 1
   3    1   22 1
   4    1   23 1
   5    2    3 1
   6    3   20 ar
   7    3    4 ar
   8    4    5 1
   9    4    7 ar
  10    5    6 1
  11    6   24 1
  12    6   25 1
  13    6   26 1
  14    7    8 ar
  15    7   27 1
  16    8   19 ar
  17    8    9 ar
  18    9   10 1
  19    9   11 ar
  20   10   28 1
  21   10   29 1
  22   10   30 1
  23   11   12 ar
  24   11   31 1
  25   12   17 1
  26   12   13 ar
  27   13   14 1
  28   13   19 ar
  29   14   15 2
  30   14   16 am
  31   16   17 am
  32   16   32 1
  33   17   18 2
  34   19   20 ar
  35   20   33 1


@<TRIPOS>MOLECULE
CCC1=CC2=C(C3=CC(=C(C=C13)OC)OC)C(=O)NC2=O
  36   38    0    0    0
SMALL
USER_CHARGES
NO_NAME
@<TRIPOS>ATOM
    1 C1       -0.0187     1.5258     0.0104 C.3    1 <0>      -0.1500
    2 C2        0.0021    -0.0041     0.0020 C.3    1 <0>      -0.0900
    3 C3       -1.4117    -0.5257     0.0127 C.ar   1 <0>      -0.0300
    4 C4       -2.1124    -0.6664    -1.1956 C.ar   1 <0>      -0.0200
    5 C5       -1.5137    -0.3275    -2.4218 C.ar   1 <0>      -0.1900
    6 C6       -2.2158    -0.4737    -3.5818 C.ar   1 <0>       0.1400
    7 O7       -1.6334    -0.1455    -4.7647 O.3    1 <0>      -0.3000
    8 C8       -0.2914     0.3429    -4.7136 C.3    1 <0>       0.0200
    9 C9       -3.5341    -0.9601    -3.5687 C.ar   1 <0>       0.1400
   10 O10      -4.2111    -1.0961    -4.7386 O.3    1 <0>      -0.3000
   11 C11      -5.5477    -1.5955    -4.6604 C.3    1 <0>       0.0200
   12 C12      -4.1420    -1.2979    -2.3945 C.ar   1 <0>      -0.1900
   13 C13      -3.4464    -1.1585    -1.1841 C.ar   1 <0>       0.0200
   14 C14      -4.0413    -1.4965     0.0456 C.ar   1 <0>      -0.1300
   15 C15      -5.3605    -2.0214     0.4419 C.2    1 <0>       0.5800
   16 O16      -6.2742    -2.2861    -0.3137 O.2    1 <0>      -0.4600
   17 N17      -5.3836    -2.1589     1.7799 N.am   1 <0>      -0.6800
   18 C18      -4.2122    -1.7788     2.3210 C.2    1 <0>       0.5800
   19 O19      -3.9400    -1.7924     3.5045 O.2    1 <0>      -0.4600
   20 C20      -3.3111    -1.3414     1.2320 C.ar   1 <0>      -0.1200
   21 C21      -2.0009    -0.8636     1.1966 C.ar   1 <0>      -0.0700
   22 H22       1.0039     1.9031     0.0027 H      1 <0>       0.0700
   23 H23      -0.5459     1.8868    -0.8726 H      1 <0>       0.0600
   24 H24      -0.5289     1.8773     0.9072 H      1 <0>       0.0600
   25 H25       0.5123    -0.3556    -0.8948 H      1 <0>       0.0800
   26 H26       0.5293    -0.3651     0.8851 H      1 <0>       0.0800
   27 H27      -0.5012     0.0477    -2.4450 H      1 <0>       0.1500
   28 H28      -0.2574     1.2492    -4.1089 H      1 <0>       0.0600
   29 H29       0.3543    -0.4147    -4.2694 H      1 <0>       0.0600
   30 H30       0.0525     0.5667    -5.7234 H      1 <0>       0.1100
   31 H31      -5.5389    -2.5881    -4.2100 H      1 <0>       0.0600
   32 H32      -6.1511    -0.9245    -4.0491 H      1 <0>       0.0600
   33 H33      -5.9726    -1.6549    -5.6624 H      1 <0>       0.1100
   34 H34      -5.1556    -1.6707    -2.3970 H      1 <0>       0.1600
   35 H35      -6.1428    -2.4875     2.2863 H      1 <0>       0.4300
   36 H36      -1.4467    -0.7577     2.1175 H      1 <0>       0.1400
@<TRIPOS>BOND
   1    1    2 1
   2    1   22 1
   3    1   23 1
   4    1   24 1
   5    2    3 1
   6    2   25 1
   7    2   26 1
   8    3   21 ar
   9    3    4 ar
  10    4   13 ar
  11    4    5 ar
  12    5    6 ar
  13    5   27 1
  14    6    7 1
  15    6    9 ar
  16    7    8 1
  17    8   28 1
  18    8   29 1
  19    8   30 1
  20    9   10 1
  21    9   12 ar
  22   10   11 1
  23   11   31 1
  24   11   32 1
  25   11   33 1
  26   12   13 ar
  27   12   34 1
  28   13   14 ar
  29   14   20 ar
  30   14   15 1
  31   15   16 2
  32   15   17 am
  33   17   18 am
  34   17   35 1
  35   18   19 2
  36   18   20 1
  37   20   21 ar
  38   21   36 1


@<TRIPOS>MOLECULE
CCSC1=CC=C(C=C1)C=C2C(=O)NC(=O)N2
28    29    1     0     0
SMALL
USER_CHARGES
@<TRIPOS>ATOM
1      C1      0.1352    1.5004   -0.3439 C.3      1 ZINC000040865591   -0.1400
2      C2      0.1268   -0.0284   -0.2861 C.3      1 ZINC000040865591   -0.1100
3      S3     -1.5865   -0.6224   -0.2400 S.3      1 ZINC000040865591   -0.1300
4      C4     -1.3975   -2.3731   -0.1765 C.ar     1 ZINC000040865591   -0.1000
5      C5     -0.1223   -2.9342   -0.1673 C.ar     1 ZINC000040865591   -0.1200
6      C6      0.0288   -4.2907   -0.1182 C.ar     1 ZINC000040865591   -0.1200
7      C7     -1.1011   -5.1184   -0.0771 C.ar     1 ZINC000040865591   -0.0200
8      C8     -0.9437   -6.5764   -0.0238 C.2      1 ZINC000040865591   -0.1600
9      C9      0.2014   -7.1181    0.4648 C.2      1 ZINC000040865591    0.0700
10     N10     1.2554   -6.4490    1.1030 N.am     1 ZINC000040865591   -0.7100
11     C11     2.1870   -7.3641    1.4240 C.2      1 ZINC000040865591    0.6500
12     O12     3.2331   -7.1122    1.9908 O.2      1 ZINC000040865591   -0.5900
13     N13     1.8095   -8.5919    1.0360 N.pl3    1 ZINC000040865591   -0.7100
14     C14     0.5994   -8.5330    0.4441 C.2      1 ZINC000040865591    0.5100
15     O15    -0.0325   -9.4633   -0.0217 O.2      1 ZINC000040865591   -0.5500
16     C16    -2.3818   -4.5498   -0.0865 C.ar     1 ZINC000040865591   -0.1000
17     C17    -2.5236   -3.1921   -0.1300 C.ar     1 ZINC000040865591   -0.0900
18     H18     1.1647    1.8574   -0.3717 H        1 ZINC000040865591    0.0700
19     H19    -0.3889    1.8330   -1.2399 H        1 ZINC000040865591    0.0600
20     H20    -0.3643    1.9001    0.5386 H        1 ZINC000040865591    0.0700
21     H21     0.6263   -0.4281   -1.1687 H        1 ZINC000040865591    0.0900
22     H22     0.6510   -0.3610    0.6099 H        1 ZINC000040865591    0.0900
23     H23     0.7480   -2.2955   -0.1994 H        1 ZINC000040865591    0.1200
24     H24     1.0177   -4.7248   -0.1114 H        1 ZINC000040865591    0.1300
25     H25    -1.7387   -7.2185   -0.3732 H        1 ZINC000040865591    0.1400
26     H26     1.3040   -5.4966    1.2807 H        1 ZINC000040865591    0.4000
27     H27    -3.2553   -5.1841   -0.0553 H        1 ZINC000040865591    0.1300
28     H28    -3.5103   -2.7530   -0.1374 H        1 ZINC000040865591    0.1200
@<TRIPOS>BOND
1     1     2     1
2     1     18    1
3     1     19    1
4     1     20    1
5     2     3     1
6     2     21    1
7     2     22    1
8     3     4     1
9     4     17    ar
10    4     5     ar
11    5     6     ar
12    5     23    1
13    6     7     ar
14    6     24    1
15    7     8     1
16    7     16    ar
17    8     9     2
18    8     25    1
19    9     14    1
20    9     10    1
21    10    11    am
22    10    26    1
23    11    12    2
24    11    13    1
25    13    14    1
26    14    15    2
27    16    17    ar
28    16    27    1
29    17    28    1
@<TRIPOS>SUBSTRUCTURE
1   ZINC000040865591 1     RESIDUE    1   A     ZIN   1


@<TRIPOS>MOLECULE
COC1=CC=C(C=C1)CNC(=O)NC2=NC=C(S2)[N+](=O)[O-]
  33   34    0    0    0
SMALL
USER_CHARGES
NO_NAME
@<TRIPOS>ATOM
    1 C1       -0.0173     1.4248     0.0099 C.3    1 <0>       0.0300
    2 O2        0.0021    -0.0041     0.0020 O.3    1 <0>      -0.3200
    3 C3       -1.2003    -0.6375     0.0101 C.ar   1 <0>       0.1400
    4 C4       -2.3746     0.1011     0.0195 C.ar   1 <0>      -0.2100
    5 C5       -3.5956    -0.5451     0.0272 C.ar   1 <0>      -0.0600
    6 C6       -3.6478    -1.9268     0.0260 C.ar   1 <0>      -0.1600
    7 C7       -4.9811    -2.6292     0.0350 C.3    1 <0>       0.1800
    8 N8       -5.4232    -2.8552    -1.3433 N.am   1 <0>      -0.7300
    9 C9       -6.5973    -3.4725    -1.5817 C.2    1 <0>       0.7000
   10 O10      -7.2896    -3.8418    -0.6529 O.2    1 <0>      -0.5100
   11 N11      -7.0041    -3.6805    -2.8497 N.am   1 <0>      -0.6300
   12 C12      -8.2150    -4.3171    -3.0956 C.2    1 <0>       0.3200
   13 N13      -9.0286    -4.7439    -2.1812 N.2    1 <0>      -0.4700
   14 C14     -10.1385    -5.3276    -2.5941 C.2    1 <0>       0.1900
   15 C15     -10.2685    -5.3971    -3.9200 C.2    1 <0>      -0.2500
   16 N16     -11.4077    -5.9960    -4.6518 N.pl3  1 <0>       0.0700
   17 O17     -12.3383    -6.4840    -4.0358 O.2    1 <0>      -0.1400
   18 O18     -11.4143    -6.0007    -5.8698 O.2    1 <0>      -0.1600
   19 S19      -8.8516    -4.6448    -4.6481 S.3    1 <0>       0.2700
   20 C20      -2.4788    -2.6651     0.0162 C.ar   1 <0>      -0.0600
   21 C21      -1.2554    -2.0237     0.0032 C.ar   1 <0>      -0.1500
   22 H22       1.0053     1.8021     0.0021 H      1 <0>       0.1000
   23 H23      -0.5445     1.7859    -0.8732 H      1 <0>       0.0600
   24 H24      -0.5275     1.7763     0.9067 H      1 <0>       0.0600
   25 H25      -2.3343     1.1803     0.0211 H      1 <0>       0.1300
   26 H26      -4.5101     0.0294     0.0345 H      1 <0>       0.1300
   27 H27      -4.8840    -3.5865     0.5470 H      1 <0>       0.0800
   28 H28      -5.7136    -2.0117     0.5548 H      1 <0>       0.0800
   29 H29      -4.8709    -2.5606    -2.0843 H      1 <0>       0.4000
   30 H30      -6.4518    -3.3859    -3.5907 H      1 <0>       0.4300
   31 H31     -10.8809    -5.7175    -1.9135 H      1 <0>       0.2100
   32 H32      -2.5223    -3.7443     0.0150 H      1 <0>       0.1300
   33 H33      -0.3426    -2.6008    -0.0045 H      1 <0>       0.1300
@<TRIPOS>BOND
   1    1    2 1
   2    1   22 1
   3    1   23 1
   4    1   24 1
   5    2    3 1
   6    3   21 ar
   7    3    4 ar
   8    4    5 ar
   9    4   25 1
  10    5    6 ar
  11    5   26 1
  12    6    7 1
  13    6   20 ar
  14    7    8 1
  15    7   27 1
  16    7   28 1
  17    8    9 am
  18    8   29 1
  19    9   10 2
  20    9   11 am
  21   11   12 1
  22   11   30 1
  23   12   19 1
  24   12   13 2
  25   13   14 1
  26   14   15 2
  27   14   31 1
  28   15   16 1
  29   15   19 1
  30   16   17 2
  31   16   18 2
  32   20   21 ar
  33   20   32 1
  34   21   33 1


@<TRIPOS>MOLECULE
COC1=CC=C(C=C1)N2C=NC3=C2C=C(C=C3)C4=NN=C(O4)SCC5=CC(=CC=C5)C(F)(F)F
51    55    1     0     0
SMALL
USER_CHARGES
@<TRIPOS>ATOM
1      C1     -0.0173    1.4248    0.0099 C.3      1 ZINC000040394943    0.0200
2      O2      0.0021   -0.0041    0.0020 O.3      1 ZINC000040394943   -0.3100
3      C3      0.6060   -0.6074   -1.0561 C.ar     1 ZINC000040394943    0.1400
4      C4      1.1727    0.1618   -2.0621 C.ar     1 ZINC000040394943   -0.1900
5      C5      1.7859   -0.4504   -3.1372 C.ar     1 ZINC000040394943   -0.0700
6      C6      1.8356   -1.8359   -3.2112 C.ar     1 ZINC000040394943    0.0800
7      N7      2.4587   -2.4583   -4.3029 N.pl3    1 ZINC000040394943   -0.4400
8      C8      2.2431   -2.1852   -5.6201 C.2      1 ZINC000040394943    0.2800
9      N9      2.9894   -2.9498   -6.3634 N.2      1 ZINC000040394943   -0.4900
10     C10     3.7355   -3.7666   -5.5770 C.ar     1 ZINC000040394943    0.0800
11     C11     4.6822   -4.7601   -5.8491 C.ar     1 ZINC000040394943   -0.0600
12     C12     5.2822   -5.4309   -4.8254 C.ar     1 ZINC000040394943   -0.0900
13     C13     4.9595   -5.1346   -3.4948 C.ar     1 ZINC000040394943   -0.0100
14     C14     5.6177   -5.8690   -2.3957 C.2      1 ZINC000040394943    0.2200
15     N15     5.4074   -5.6984   -1.1129 N.2      1 ZINC000040394943   -0.2700
16     N16     6.1530   -6.5075   -0.4460 N.2      1 ZINC000040394943   -0.2800
17     C17     6.8697   -7.2274   -1.2775 C.2      1 ZINC000040394943    0.1300
18     S18     8.0375   -8.4721   -0.8395 S.3      1 ZINC000040394943    0.0800
19     C19     7.9063   -8.4052    0.9645 C.3      1 ZINC000040394943   -0.0800
20     C20     8.8442   -9.4150    1.5741 C.ar     1 ZINC000040394943   -0.0900
21     C21     8.4091  -10.7043    1.8160 C.ar     1 ZINC000040394943   -0.0600
22     C22     9.2696  -11.6308    2.3753 C.ar     1 ZINC000040394943   -0.1200
23     C23    10.5650  -11.2677    2.6921 C.ar     1 ZINC000040394943   -0.0600
24     C24    11.0005   -9.9781    2.4493 C.ar     1 ZINC000040394943   -0.1800
25     C25    12.4128   -9.5821    2.7952 C.3      1 ZINC000040394943    0.5100
26     F26    13.0838  -10.6800    3.3445 F        1 ZINC000040394943   -0.1800
27     F27    13.0761   -9.1618    1.6373 F        1 ZINC000040394943   -0.1700
28     F28    12.3897   -8.5369    3.7248 F        1 ZINC000040394943   -0.1700
29     C29    10.1416   -9.0532    1.8862 C.ar     1 ZINC000040394943   -0.0500
30     O30     6.5437   -6.8447   -2.5271 O.3      1 ZINC000040394943   -0.2000
31     C31     4.0187   -4.1479   -3.2065 C.ar     1 ZINC000040394943   -0.0400
32     C32     3.4109   -3.4596   -4.2428 C.ar     1 ZINC000040394943    0.0400
33     C33     1.2687   -2.6051   -2.2040 C.ar     1 ZINC000040394943   -0.0700
34     C34     0.6604   -1.9918   -1.1267 C.ar     1 ZINC000040394943   -0.1300
35     H35     1.0053    1.8021    0.0021 H        1 ZINC000040394943    0.0600
36     H36    -0.5445    1.7859   -0.8732 H        1 ZINC000040394943    0.0600
37     H37    -0.5275    1.7763    0.9067 H        1 ZINC000040394943    0.1100
38     H38     1.1340    1.2395   -2.0044 H        1 ZINC000040394943    0.1400
39     H39     2.2264    0.1484   -3.9206 H        1 ZINC000040394943    0.1400
40     H40     1.5533   -1.4426   -5.9931 H        1 ZINC000040394943    0.2200
41     H41     4.9376   -4.9961   -6.8716 H        1 ZINC000040394943    0.1400
42     H42     6.0120   -6.1970   -5.0419 H        1 ZINC000040394943    0.1400
43     H43     8.1722   -7.4066    1.3113 H        1 ZINC000040394943    0.1200
44     H44     6.8831   -8.6331    1.2631 H        1 ZINC000040394943    0.1200
45     H45     7.3969  -10.9881    1.5685 H        1 ZINC000040394943    0.1400
46     H46     8.9294  -12.6381    2.5650 H        1 ZINC000040394943    0.1400
47     H47    11.2370  -11.9911    3.1297 H        1 ZINC000040394943    0.1400
48     H48    10.4818   -8.0459    1.6965 H        1 ZINC000040394943    0.1400
49     H49     3.7684   -3.9185   -2.1813 H        1 ZINC000040394943    0.1400
50     H50     1.3067   -3.6829   -2.2613 H        1 ZINC000040394943    0.1400
51     H51     0.2197   -2.5901   -0.3430 H        1 ZINC000040394943    0.1400
@<TRIPOS>BOND
1     1     2     1
2     1     35    1
3     1     36    1
4     1     37    1
5     2     3     1
6     3     34    ar
7     3     4     ar
8     4     5     ar
9     4     38    1
10    5     6     ar
11    5     39    1
12    6     7     1
13    6     33    ar
14    7     32    1
15    7     8     1
16    8     9     2
17    8     40    1
18    9     10    1
19    10    32    ar
20    10    11    ar
21    11    12    ar
22    11    41    1
23    12    13    ar
24    12    42    1
25    13    14    1
26    13    31    ar
27    14    30    1
28    14    15    2
29    15    16    1
30    16    17    2
31    17    18    1
32    17    30    1
33    18    19    1
34    19    20    1
35    19    43    1
36    19    44    1
37    20    29    ar
38    20    21    ar
39    21    22    ar
40    21    45    1
41    22    23    ar
42    22    46    1
43    23    24    ar
44    23    47    1
45    24    25    1
46    24    29    ar
47    25    26    1
48    25    27    1
49    25    28    1
50    29    48    1
51    31    32    ar
52    31    49    1
53    33    34    ar
54    33    50    1
55    34    51    1
@<TRIPOS>SUBSTRUCTURE
1   ZINC000040394943 1     RESIDUE    1   A     ZIN   1


@<TRIPOS>MOLECULE
CN1CCN(CC1)C2=CC=CC(=N2)NC(=O)NC3=CSC(=N3)C4=CC=NC=C4
  50   53    0    0    0
SMALL
USER_CHARGES
NO_NAME
@<TRIPOS>ATOM
    1 C1       -0.0887     1.4233     0.0046 C.3    1 <0>      -0.0500
    2 N2       -0.0553    -0.0453    -0.0024 N.4    1 <0>      -0.3900
    3 H3       -0.9991    -0.4020     0.0049 H      1 <0>       0.4200
    4 C4        0.6557    -0.5226     1.1904 C.3    1 <0>      -0.0200
    5 C5        0.5919    -2.0526     1.2436 C.3    1 <0>       0.1000
    6 N6        1.1101    -2.5854    -0.0259 N.pl3  1 <0>      -0.6200
    7 C7        2.0857    -3.5753    -0.0404 C.ar   1 <0>       0.4200
    8 C8        2.5745    -4.0770     1.1602 C.ar   1 <0>      -0.2700
    9 C9        3.5464    -5.0637     1.1357 C.ar   1 <0>       0.0000
   10 C10       3.9991    -5.5178    -0.0926 C.ar   1 <0>      -0.2500
   11 C11       3.4684    -4.9738    -1.2554 C.ar   1 <0>       0.4300
   12 N12       3.9180    -5.4246    -2.4952 N.am   1 <0>      -0.6700
   13 C13       3.4883    -4.8288    -3.6251 C.2    1 <0>       0.7000
   14 O14       2.7859    -3.8384    -3.5609 O.2    1 <0>      -0.4800
   15 N15       3.8371    -5.3308    -4.8263 N.am   1 <0>      -0.6600
   16 C16       3.3035    -4.7762    -6.0010 C.2    1 <0>       0.3300
   17 C17       3.5417    -5.3040    -7.2137 C.2    1 <0>      -0.3000
   18 S18       2.7006    -4.3259    -8.4146 S.3    1 <0>       0.1500
   19 C19       2.0969    -3.2780    -7.1338 C.2    1 <0>       0.1100
   20 C20       1.2271    -2.0991    -7.3303 C.ar   1 <0>       0.0200
   21 C21       0.8055    -1.3265    -6.2416 C.ar   1 <0>      -0.1300
   22 C22      -0.0057    -0.2349    -6.4708 C.ar   1 <0>       0.1000
   23 N23      -0.3835     0.0837    -7.6942 N.ar   1 <0>      -0.4700
   24 C24      -0.0091    -0.6170    -8.7477 C.ar   1 <0>       0.1100
   25 C25       0.8067    -1.7206    -8.6110 C.ar   1 <0>      -0.1500
   26 N26       2.5342    -3.7106    -5.9850 N.2    1 <0>      -0.4300
   27 N27       2.5363    -4.0348    -1.1983 N.ar   1 <0>      -0.5300
   28 C28       0.5661    -2.0411    -1.2796 C.3    1 <0>       0.1000
   29 C29       0.6330    -0.5116    -1.2127 C.3    1 <0>      -0.0200
   30 H30       0.9304     1.8100    -0.0032 H      1 <0>       0.1200
   31 H31      -0.6191     1.7789    -0.8788 H      1 <0>       0.1300
   32 H32      -0.6023     1.7708     0.9011 H      1 <0>       0.1200
   33 H33       1.6969    -0.2036     1.1448 H      1 <0>       0.1300
   34 H34       0.1871    -0.1080     2.0830 H      1 <0>       0.1400
   35 H35       1.2028    -2.4161     2.0700 H      1 <0>       0.1300
   36 H36      -0.4414    -2.3716     1.3802 H      1 <0>       0.0900
   37 H37       2.2010    -3.7016     2.1014 H      1 <0>       0.1300
   38 H38       3.9430    -5.4701     2.0543 H      1 <0>       0.1400
   39 H39       4.7564    -6.2860    -0.1454 H      1 <0>       0.1400
   40 H40       4.5401    -6.1672    -2.5448 H      1 <0>       0.4200
   41 H41       4.4568    -6.0752    -4.8794 H      1 <0>       0.4200
   42 H42       4.1447    -6.1765    -7.4173 H      1 <0>       0.1900
   43 H43       1.1105    -1.5817    -5.2375 H      1 <0>       0.1500
   44 H44      -0.3366     0.3671    -5.6374 H      1 <0>       0.1600
   45 H45      -0.3427    -0.3198    -9.7310 H      1 <0>       0.1700
   46 H46       1.1095    -2.2893    -9.4778 H      1 <0>       0.1400
   47 H47       1.1599    -2.3970    -2.1216 H      1 <0>       0.1500
   48 H48      -0.4698    -2.3590    -1.3979 H      1 <0>       0.0800
   49 H49       0.1465    -0.0878    -2.0913 H      1 <0>       0.1400
   50 H50       1.6754    -0.1942    -1.1857 H      1 <0>       0.1300
@<TRIPOS>BOND
   1    1    2 1
   2    1   30 1
   3    1   31 1
   4    1   32 1
   5    2    3 1
   6    2   29 1
   7    2    4 1
   8    4    5 1
   9    4   33 1
  10    4   34 1
  11    5    6 1
  12    5   35 1
  13    5   36 1
  14    6    7 1
  15    6   28 1
  16    7   27 ar
  17    7    8 ar
  18    8    9 ar
  19    8   37 1
  20    9   10 ar
  21    9   38 1
  22   10   11 ar
  23   10   39 1
  24   11   12 1
  25   11   27 ar
  26   12   13 am
  27   12   40 1
  28   13   14 2
  29   13   15 am
  30   15   16 1
  31   15   41 1
  32   16   26 1
  33   16   17 2
  34   17   18 1
  35   17   42 1
  36   18   19 1
  37   19   20 1
  38   19   26 2
  39   20   25 ar
  40   20   21 ar
  41   21   22 ar
  42   21   43 1
  43   22   23 ar
  44   22   44 1
  45   23   24 ar
  46   24   25 ar
  47   24   45 1
  48   25   46 1
  49   28   29 1
  50   28   47 1
  51   28   48 1
  52   29   49 1
  53   29   50 1


@<TRIPOS>MOLECULE
CC1=C(C=C(C=C1)N2CCN(CC2)CCCNC(=O)C3=NC(=NO3)C4=CN=CC=C4)C
60    63    1     0     0
SMALL
USER_CHARGES
@<TRIPOS>ATOM
1      C1     -0.0184    1.5028    0.0103 C.3      1 ZINC000029042536   -0.1300
2      C2      0.0021   -0.0041    0.0020 C.ar     1 ZINC000029042536   -0.0900
3      C3      0.0058   -0.6872   -1.2001 C.ar     1 ZINC000029042536   -0.0900
4      C4      0.0249   -2.0683   -1.2113 C.ar     1 ZINC000029042536   -0.1600
5      C5      0.0405   -2.7708   -0.0132 C.ar     1 ZINC000029042536    0.0800
6      N6      0.0604   -4.1673   -0.0209 N.3      1 ZINC000029042536   -0.4900
7      C7      1.2129   -4.6819    0.7322 C.3      1 ZINC000029042536    0.0300
8      C8      1.1651   -6.2113    0.7500 C.3      1 ZINC000029042536    0.0000
9      N9      1.1931   -6.7183   -0.6282 N.4      1 ZINC000029042536   -0.3900
10     H10     2.0360   -6.4038   -1.0850 H        1 ZINC000029042536    0.4200
11     C11     1.1651   -8.1869   -0.6101 C.3      1 ZINC000029042536    0.0000
12     C12     1.3198   -8.7177   -2.0367 C.3      1 ZINC000029042536   -0.1700
13     C13     1.2906  -10.2473   -2.0178 C.3      1 ZINC000029042536    0.1200
14     N14     1.4387  -10.7554   -3.3838 N.am     1 ZINC000029042536   -0.7200
15     C15     1.4415  -12.0837   -3.6121 C.2      1 ZINC000029042536    0.6300
16     O16     1.3213  -12.8597   -2.6850 O.2      1 ZINC000029042536   -0.4600
17     C17     1.5914  -12.5981   -4.9947 C.2      1 ZINC000029042536    0.1300
18     N18     1.6061  -13.8617   -5.3634 N.2      1 ZINC000029042536   -0.4000
19     C19     1.7623  -13.8464   -6.7026 C.2      1 ZINC000029042536    0.2300
20     C20     1.8394  -15.0321   -7.5926 C.ar     1 ZINC000029042536   -0.0900
21     C21     2.0092  -14.8756   -8.9704 C.ar     1 ZINC000029042536   -0.0300
22     C22     2.0756  -16.0130   -9.7573 C.ar     1 ZINC000029042536   -0.1700
23     C23     1.9728  -17.2556   -9.1598 C.ar     1 ZINC000029042536    0.1300
24     N24     1.8129  -17.3718   -7.8555 N.ar     1 ZINC000029042536   -0.4800
25     C25     1.7496  -16.3189   -7.0665 C.ar     1 ZINC000029042536    0.1500
26     N26     1.8334  -12.5930   -7.0731 N.2      1 ZINC000029042536   -0.3500
27     O27     1.7320  -11.8641   -6.1090 O.3      1 ZINC000029042536    0.1100
28     C28     0.0231   -6.2159   -1.3605 C.3      1 ZINC000029042536   -0.0100
29     C29     0.0614   -4.6865   -1.3959 C.3      1 ZINC000029042536    0.0200
30     C30     0.0368   -2.0812    1.1929 C.ar     1 ZINC000029042536   -0.1300
31     C31     0.0229   -0.7004    1.1968 C.ar     1 ZINC000029042536   -0.0600
32     C32     0.0193    0.0485    2.5046 C.3      1 ZINC000029042536   -0.1300
33     H33     1.0042    1.8801    0.0026 H        1 ZINC000029042536    0.0800
34     H34    -0.5455    1.8639   -0.8728 H        1 ZINC000029042536    0.0700
35     H35    -0.5286    1.8543    0.9071 H        1 ZINC000029042536    0.0800
36     H36    -0.0067   -0.1404   -2.1313 H        1 ZINC000029042536    0.1300
37     H37     0.0274   -2.6013   -2.1506 H        1 ZINC000029042536    0.1300
38     H38     2.1357   -4.3524    0.2548 H        1 ZINC000029042536    0.0700
39     H39     1.1771   -4.3049    1.7543 H        1 ZINC000029042536    0.1300
40     H40     2.0268   -6.5953    1.2960 H        1 ZINC000029042536    0.1400
41     H41     0.2486   -6.5404    1.2397 H        1 ZINC000029042536    0.1400
42     H42     1.9837   -8.5583    0.0065 H        1 ZINC000029042536    0.1400
43     H43     0.2156   -8.5271   -0.1968 H        1 ZINC000029042536    0.1400
44     H44     0.5012   -8.3463   -2.6533 H        1 ZINC000029042536    0.1000
45     H45     2.2693   -8.3774   -2.4500 H        1 ZINC000029042536    0.1000
46     H46     2.1092  -10.6187   -1.4012 H        1 ZINC000029042536    0.0900
47     H47     0.3411  -10.5875   -1.6045 H        1 ZINC000029042536    0.0900
48     H48     1.5347  -10.1359   -4.1240 H        1 ZINC000029042536    0.4100
49     H49     2.0862  -13.8925   -9.4106 H        1 ZINC000029042536    0.1400
50     H50     2.2060  -15.9304  -10.8262 H        1 ZINC000029042536    0.1500
51     H51     2.0238  -18.1450   -9.7704 H        1 ZINC000029042536    0.1700
52     H52     1.6184  -16.4543   -6.0031 H        1 ZINC000029042536    0.1700
53     H53     0.0381   -6.6034   -2.3792 H        1 ZINC000029042536    0.1400
54     H54    -0.8875   -6.5450   -0.8600 H        1 ZINC000029042536    0.1400
55     H55    -0.8145   -4.3130   -1.9263 H        1 ZINC000029042536    0.1300
56     H56     0.9652   -4.3571   -1.9084 H        1 ZINC000029042536    0.0700
57     H57     0.0485   -2.6244    2.1263 H        1 ZINC000029042536    0.1300
58     H58     1.0460    0.2394    2.8168 H        1 ZINC000029042536    0.0800
59     H59    -0.5045    0.9962    2.3791 H        1 ZINC000029042536    0.0800
60     H60    -0.4863   -0.5484    3.2637 H        1 ZINC000029042536    0.0700
@<TRIPOS>BOND
1     1     2     1
2     1     33    1
3     1     34    1
4     1     35    1
5     2     31    ar
6     2     3     ar
7     3     4     ar
8     3     36    1
9     4     5     ar
10    4     37    1
11    5     6     1
12    5     30    ar
13    6     29    1
14    6     7     1
15    7     8     1
16    7     38    1
17    7     39    1
18    8     9     1
19    8     40    1
20    8     41    1
21    9     10    1
22    9     11    1
23    9     28    1
24    11    12    1
25    11    42    1
26    11    43    1
27    12    13    1
28    12    44    1
29    12    45    1
30    13    14    1
31    13    46    1
32    13    47    1
33    14    15    am
34    14    48    1
35    15    16    2
36    15    17    1
37    17    27    1
38    17    18    2
39    18    19    1
40    19    20    1
41    19    26    2
42    20    25    ar
43    20    21    ar
44    21    22    ar
45    21    49    1
46    22    23    ar
47    22    50    1
48    23    24    ar
49    23    51    1
50    24    25    ar
51    25    52    1
52    26    27    1
53    28    29    1
54    28    53    1
55    28    54    1
56    29    55    1
57    29    56    1
58    30    31    ar
59    30    57    1
60    31    32    1
61    32    58    1
62    32    59    1
63    32    60    1
@<TRIPOS>SUBSTRUCTURE
1   ZINC000029042536 1     RESIDUE    1   A     ZIN   1


@<TRIPOS>MOLECULE
COC1=CC=CC=C1N2CCN(CC2)CCCNC(=O)C3=NC(=NO3)C4=CN=CC=C4
57    60    1     0     0
SMALL
USER_CHARGES
@<TRIPOS>ATOM
1      C1      2.6355   -4.4936    2.9691 C.3      1 ZINC000029042448    0.0200
2      O2      1.7722   -3.9456    1.9708 O.3      1 ZINC000029042448   -0.3100
3      C3      1.5166   -2.6116    2.0403 C.ar     1 ZINC000029042448    0.1200
4      C4      2.0884   -1.8467    3.0429 C.ar     1 ZINC000029042448   -0.1900
5      C5      1.8280   -0.4899    3.1121 C.ar     1 ZINC000029042448   -0.1000
6      C6      0.9970    0.1064    2.1825 C.ar     1 ZINC000029042448   -0.1300
7      C7      0.4221   -0.6504    1.1782 C.ar     1 ZINC000029042448   -0.1300
8      C8      0.6832   -2.0101    1.0992 C.ar     1 ZINC000029042448    0.0800
9      N9      0.1029   -2.7782    0.0832 N.3      1 ZINC000029042448   -0.4800
10     C10    -0.5450   -1.9216   -0.9198 C.3      1 ZINC000029042448    0.0500
11     C11    -1.0965   -2.7927   -2.0510 C.3      1 ZINC000029042448    0.0600
12     N12    -2.0500   -3.7642   -1.4973 N.3      1 ZINC000029042448   -0.5400
13     C13    -2.6592   -4.5704   -2.5636 C.3      1 ZINC000029042448    0.0600
14     C14    -3.8161   -5.3886   -1.9867 C.3      1 ZINC000029042448   -0.1300
15     C15    -4.4505   -6.2283   -3.0972 C.3      1 ZINC000029042448    0.1200
16     N16    -5.5583   -7.0118   -2.5448 N.am     1 ZINC000029042448   -0.7100
17     C17    -6.2692   -7.8309   -3.3449 C.2      1 ZINC000029042448    0.6200
18     O18    -5.9913   -7.9195   -4.5243 O.2      1 ZINC000029042448   -0.4700
19     C19    -7.3904   -8.6239   -2.7858 C.2      1 ZINC000029042448    0.1500
20     N20    -8.1620   -9.4627   -3.4446 N.2      1 ZINC000029042448   -0.4100
21     C21    -9.0322   -9.9452   -2.5346 C.2      1 ZINC000029042448    0.2200
22     C22   -10.1123  -10.9317   -2.7877 C.ar     1 ZINC000029042448   -0.0800
23     C23   -10.9527  -11.3456   -1.7512 C.ar     1 ZINC000029042448   -0.0400
24     C24   -11.9452  -12.2672   -2.0388 C.ar     1 ZINC000029042448   -0.1700
25     C25   -12.0717  -12.7440   -3.3305 C.ar     1 ZINC000029042448    0.1200
26     N26   -11.2628  -12.3343   -4.2887 N.ar     1 ZINC000029042448   -0.4800
27     C27   -10.3079  -11.4553   -4.0637 C.ar     1 ZINC000029042448    0.1500
28     N28    -8.7488   -9.3832   -1.3870 N.2      1 ZINC000029042448   -0.3500
29     O29    -7.8081   -8.6277   -1.5108 O.3      1 ZINC000029042448    0.1100
30     C30    -1.4021   -4.6208   -0.4943 C.3      1 ZINC000029042448    0.0500
31     C31    -0.8507   -3.7497    0.6369 C.3      1 ZINC000029042448    0.0600
32     H32     2.2008   -4.3297    3.9551 H        1 ZINC000029042448    0.0500
33     H33     2.7554   -5.5635    2.7982 H        1 ZINC000029042448    0.1000
34     H34     3.6087   -4.0058    2.9154 H        1 ZINC000029042448    0.0500
35     H35     2.7376   -2.3096    3.7714 H        1 ZINC000029042448    0.1300
36     H36     2.2749    0.1050    3.8949 H        1 ZINC000029042448    0.1200
37     H37     0.7960    1.1659    2.2409 H        1 ZINC000029042448    0.1200
38     H38    -0.2268   -0.1819    0.4530 H        1 ZINC000029042448    0.1300
39     H39    -1.3619   -1.3703   -0.4541 H        1 ZINC000029042448    0.0500
40     H40     0.1842   -1.2195   -1.3240 H        1 ZINC000029042448    0.0900
41     H41    -1.6029   -2.1621   -2.7818 H        1 ZINC000029042448    0.0900
42     H42    -0.2762   -3.3233   -2.5344 H        1 ZINC000029042448    0.0500
43     H43    -3.0349   -3.9123   -3.3471 H        1 ZINC000029042448    0.0800
44     H44    -1.9113   -5.2437   -2.9823 H        1 ZINC000029042448    0.0400
45     H45    -3.4404   -6.0467   -1.2032 H        1 ZINC000029042448    0.0700
46     H46    -4.5640   -4.7153   -1.5679 H        1 ZINC000029042448    0.0800
47     H47    -4.8262   -5.5702   -3.8807 H        1 ZINC000029042448    0.0800
48     H48    -3.7026   -6.9016   -3.5160 H        1 ZINC000029042448    0.0800
49     H49    -5.7802   -6.9411   -1.6032 H        1 ZINC000029042448    0.4100
50     H50   -10.8311  -10.9568   -0.7510 H        1 ZINC000029042448    0.1400
51     H51   -12.6132  -12.6102   -1.2625 H        1 ZINC000029042448    0.1500
52     H52   -12.8445  -13.4632   -3.5584 H        1 ZINC000029042448    0.1700
53     H53    -9.6655  -11.1439   -4.8741 H        1 ZINC000029042448    0.1700
54     H54    -2.1313   -5.3230   -0.0901 H        1 ZINC000029042448    0.0800
55     H55    -0.5853   -5.1721   -0.9600 H        1 ZINC000029042448    0.0500
56     H56    -0.3443   -4.3803    1.3677 H        1 ZINC000029042448    0.0900
57     H57    -1.6710   -3.2191    1.1203 H        1 ZINC000029042448    0.0500
@<TRIPOS>BOND
1     1     2     1
2     1     32    1
3     1     33    1
4     1     34    1
5     2     3     1
6     3     8     ar
7     3     4     ar
8     4     5     ar
9     4     35    1
10    5     6     ar
11    5     36    1
12    6     7     ar
13    6     37    1
14    7     8     ar
15    7     38    1
16    8     9     1
17    9     31    1
18    9     10    1
19    10    11    1
20    10    39    1
21    10    40    1
22    11    12    1
23    11    41    1
24    11    42    1
25    12    13    1
26    12    30    1
27    13    14    1
28    13    43    1
29    13    44    1
30    14    15    1
31    14    45    1
32    14    46    1
33    15    16    1
34    15    47    1
35    15    48    1
36    16    17    am
37    16    49    1
38    17    18    2
39    17    19    1
40    19    29    1
41    19    20    2
42    20    21    1
43    21    22    1
44    21    28    2
45    22    27    ar
46    22    23    ar
47    23    24    ar
48    23    50    1
49    24    25    ar
50    24    51    1
51    25    26    ar
52    25    52    1
53    26    27    ar
54    27    53    1
55    28    29    1
56    30    31    1
57    30    54    1
58    30    55    1
59    31    56    1
60    31    57    1
@<TRIPOS>SUBSTRUCTURE
1   ZINC000029042448 1     RESIDUE    1   A     ZIN   1


@<TRIPOS>MOLECULE
CC1CN(CCN1CCCNC(=O)C2=NC(=NO2)C3=CN=CC=C3)C4=CC=CC(=C4)C
60    63    1     0     0
SMALL
USER_CHARGES
@<TRIPOS>ATOM
1      C1     -0.0184    1.5028    0.0103 C.3      1 ZINC000029042442   -0.1200
2      C2      0.0021   -0.0041    0.0020 C.ar     1 ZINC000029042442   -0.0500
3      C3      0.0058   -0.6880   -1.1996 C.ar     1 ZINC000029042442   -0.1300
4      C4      0.0250   -2.0709   -1.2117 C.ar     1 ZINC000029042442   -0.0900
5      C5      0.0400   -2.7732   -0.0230 C.ar     1 ZINC000029042442   -0.1700
6      C6      0.0364   -2.0891    1.1863 C.ar     1 ZINC000029042442    0.0900
7      N7      0.0520   -2.7963    2.3906 N.3      1 ZINC000029042442   -0.4800
8      C8     -1.0907   -2.4225    3.2359 C.3      1 ZINC000029042442    0.0300
9      C9     -1.0042   -3.1731    4.5666 C.3      1 ZINC000029042442   -0.0100
10     N10    -1.0125   -4.6201    4.3142 N.4      1 ZINC000029042442   -0.3800
11     H11    -1.8608   -4.8719    3.8295 H        1 ZINC000029042442    0.4200
12     C12    -0.9473   -5.3403    5.5929 C.3      1 ZINC000029042442   -0.0100
13     C13    -2.2172   -5.0627    6.3999 C.3      1 ZINC000029042442   -0.1600
14     C14    -2.1493   -5.8128    7.7316 C.3      1 ZINC000029042442    0.1200
15     N15    -3.3652   -5.5471    8.5043 N.am     1 ZINC000029042442   -0.7200
16     C16    -3.5271   -6.1066    9.7197 C.2      1 ZINC000029042442    0.6300
17     O17    -2.6646   -6.8314   10.1745 O.2      1 ZINC000029042442   -0.4600
18     C18    -4.7578   -5.8377   10.5018 C.2      1 ZINC000029042442    0.1300
19     N19    -5.0456   -6.3092   11.6967 N.2      1 ZINC000029042442   -0.4000
20     C20    -6.2558   -5.8007   12.0048 C.2      1 ZINC000029042442    0.2300
21     C21    -7.0173   -6.0396   13.2566 C.ar     1 ZINC000029042442   -0.0900
22     C22    -8.2706   -5.4528   13.4479 C.ar     1 ZINC000029042442   -0.0300
23     C23    -8.9409   -5.7071   14.6326 C.ar     1 ZINC000029042442   -0.1700
24     C24    -8.3537   -6.5260   15.5794 C.ar     1 ZINC000029042442    0.1300
25     N25    -7.1684   -7.0660   15.3702 N.ar     1 ZINC000029042442   -0.4800
26     C26    -6.4961   -6.8571   14.2569 C.ar     1 ZINC000029042442    0.1500
27     N27    -6.6353   -5.0575   10.9964 N.2      1 ZINC000029042442   -0.3500
28     O28    -5.7876   -5.0627   10.1289 O.3      1 ZINC000029042442    0.1100
29     C29     0.1480   -4.9816    3.4895 C.3      1 ZINC000029042442    0.0300
30     H30     0.1479   -6.0574    3.3139 H        1 ZINC000029042442    0.1500
31     C31     1.4341   -4.5838    4.2166 C.3      1 ZINC000029042442   -0.1800
32     C32     0.0711   -4.2461    2.1499 C.3      1 ZINC000029042442    0.0300
33     C33     0.0229   -0.7003    1.1948 C.ar     1 ZINC000029042442   -0.1300
34     H34     1.0042    1.8801    0.0026 H        1 ZINC000029042442    0.0800
35     H35    -0.5455    1.8639   -0.8728 H        1 ZINC000029042442    0.0700
36     H36    -0.5286    1.8543    0.9071 H        1 ZINC000029042442    0.0700
37     H37    -0.0067   -0.1412   -2.1308 H        1 ZINC000029042442    0.1300
38     H38     0.0278   -2.6021   -2.1521 H        1 ZINC000029042442    0.1300
39     H39     0.0543   -3.8530   -0.0331 H        1 ZINC000029042442    0.1300
40     H40    -1.0696   -1.3487    3.4219 H        1 ZINC000029042442    0.1300
41     H41    -2.0193   -2.6860    2.7294 H        1 ZINC000029042442    0.0700
42     H42    -0.0821   -2.8989    5.0790 H        1 ZINC000029042442    0.1400
43     H43    -1.8586   -2.9081    5.1894 H        1 ZINC000029042442    0.1400
44     H44    -0.8638   -6.4104    5.4033 H        1 ZINC000029042442    0.1400
45     H45    -0.0776   -5.0022    6.1563 H        1 ZINC000029042442    0.1400
46     H46    -2.3006   -3.9926    6.5894 H        1 ZINC000029042442    0.1000
47     H47    -3.0868   -5.4008    5.8364 H        1 ZINC000029042442    0.1000
48     H48    -2.0658   -6.8830    7.5421 H        1 ZINC000029042442    0.0900
49     H49    -1.2796   -5.4748    8.2951 H        1 ZINC000029042442    0.0900
50     H50    -4.0538   -4.9684    8.1412 H        1 ZINC000029042442    0.4100
51     H51    -8.7056   -4.8168   12.6912 H        1 ZINC000029042442    0.1400
52     H52    -9.9116   -5.2703   14.8151 H        1 ZINC000029042442    0.1500
53     H53    -8.8733   -6.7263   16.5047 H        1 ZINC000029042442    0.1700
54     H54    -5.5283   -7.3170   14.1220 H        1 ZINC000029042442    0.1700
55     H55     1.4890   -5.1078    5.1708 H        1 ZINC000029042442    0.0800
56     H56     2.2953   -4.8521    3.6047 H        1 ZINC000029042442    0.1000
57     H57     1.4342   -3.5081    4.3923 H        1 ZINC000029042442    0.0900
58     H58    -0.8383   -4.5396    1.6255 H        1 ZINC000029042442    0.0700
59     H59     0.9398   -4.5027    1.5436 H        1 ZINC000029042442    0.1300
60     H60     0.0200   -0.1654    2.1331 H        1 ZINC000029042442    0.1300
@<TRIPOS>BOND
1     1     2     1
2     1     34    1
3     1     35    1
4     1     36    1
5     2     33    ar
6     2     3     ar
7     3     4     ar
8     3     37    1
9     4     5     ar
10    4     38    1
11    5     6     ar
12    5     39    1
13    6     7     1
14    6     33    ar
15    7     32    1
16    7     8     1
17    8     9     1
18    8     40    1
19    8     41    1
20    9     10    1
21    9     42    1
22    9     43    1
23    10    11    1
24    10    12    1
25    10    29    1
26    12    13    1
27    12    44    1
28    12    45    1
29    13    14    1
30    13    46    1
31    13    47    1
32    14    15    1
33    14    48    1
34    14    49    1
35    15    16    am
36    15    50    1
37    16    17    2
38    16    18    1
39    18    28    1
40    18    19    2
41    19    20    1
42    20    21    1
43    20    27    2
44    21    26    ar
45    21    22    ar
46    22    23    ar
47    22    51    1
48    23    24    ar
49    23    52    1
50    24    25    ar
51    24    53    1
52    25    26    ar
53    26    54    1
54    27    28    1
55    29    30    1
56    29    31    1
57    29    32    1
58    31    55    1
59    31    56    1
60    31    57    1
61    32    58    1
62    32    59    1
63    33    60    1
@<TRIPOS>SUBSTRUCTURE
1   ZINC000029042442 1     RESIDUE    1   A     ZIN   1


@<TRIPOS>MOLECULE
CCCC1=C(C(C2=C(N1)NN=C2)C3=CC=CC(=C3Br)C#N)C4=NN=C(O4)C
44    47    1     0     0
SMALL
USER_CHARGES
@<TRIPOS>ATOM
1      C1     -0.5218    1.0389   -0.4418 C.3      1 ZINC000003819952   -0.1600
2      C2     -0.3257   -0.4645   -0.2363 C.3      1 ZINC000003819952   -0.1100
3      C3      0.4566   -0.7048    1.0564 C.3      1 ZINC000003819952   -0.0800
4      C4      0.6497   -2.1856    1.2588 C.2      1 ZINC000003819952    0.2100
5      N5      0.1653   -2.9828    0.3704 N.2      1 ZINC000003819952   -0.4000
6      C6      0.2710   -4.3385    0.5620 C.2      1 ZINC000003819952    0.2500
7      N7      0.1056   -5.3383   -0.2590 N.2      1 ZINC000003819952   -0.2400
8      N8      0.3460   -6.5271    0.4497 N.pl3    1 ZINC000003819952   -0.4700
9      C9      0.6588   -6.2032    1.7280 C.2      1 ZINC000003819952    0.1000
10     C10     0.6183   -4.8720    1.8328 C.2      1 ZINC000003819952   -0.2700
11     C11     0.8638   -3.9693    3.0168 C.3      1 ZINC000003819952    0.0300
12     H12    -0.0686   -3.8069    3.5575 H        1 ZINC000003819952    0.1200
13     C13     1.8838   -4.5942    3.9333 C.ar     1 ZINC000003819952   -0.0500
14     C14     3.0712   -5.0789    3.4158 C.ar     1 ZINC000003819952   -0.0900
15     C15     4.0135   -5.6548    4.2501 C.ar     1 ZINC000003819952   -0.1000
16     C16     3.7744   -5.7495    5.6050 C.ar     1 ZINC000003819952   -0.0600
17     C17     2.5780   -5.2620    6.1355 C.ar     1 ZINC000003819952    0.0100
18     C18     2.3229   -5.3569    7.5415 C.1      1 ZINC000003819952    0.2400
19     N19     2.1206   -5.4323    8.6568 N.1      1 ZINC000003819952   -0.3800
20     C20     1.6333   -4.6767    5.2888 C.ar     1 ZINC000003819952   -0.0500
21     Br21    0.0095   -4.0129    5.9949 Br       1 ZINC000003819952   -0.0200
22     C22     1.3982   -2.6343    2.4777 C.3      1 ZINC000003819952    0.0100
23     C23     2.8575   -2.7925    2.1364 C.2      1 ZINC000003819952    0.1700
24     N24     3.3423   -3.3623    1.0699 N.2      1 ZINC000003819952   -0.2600
25     N25     4.6276   -3.3168    1.1083 N.2      1 ZINC000003819952   -0.2900
26     C26     5.0064   -2.7165    2.2007 C.2      1 ZINC000003819952    0.1700
27     C27     6.4279   -2.4569    2.6287 C.3      1 ZINC000003819952   -0.0600
28     O28     3.8971   -2.3667    2.8733 O.3      1 ZINC000003819952   -0.2200
29     H29     0.4508    1.5263   -0.5098 H        1 ZINC000003819952    0.0500
30     H30    -1.0791    1.2101   -1.3628 H        1 ZINC000003819952    0.0600
31     H31    -1.0768    1.4515    0.4007 H        1 ZINC000003819952    0.0500
32     H32    -1.2983   -0.9518   -0.1684 H        1 ZINC000003819952    0.0700
33     H33     0.2293   -0.8770   -1.0789 H        1 ZINC000003819952    0.0700
34     H34     1.4292   -0.2175    0.9884 H        1 ZINC000003819952    0.0900
35     H35    -0.0984   -0.2922    1.8990 H        1 ZINC000003819952    0.1000
36     H36     0.2965   -7.4252    0.0867 H        1 ZINC000003819952    0.4500
37     H37     0.8983   -6.8971    2.5202 H        1 ZINC000003819952    0.1800
38     H38     3.2640   -5.0079    2.3555 H        1 ZINC000003819952    0.1400
39     H39     4.9384   -6.0315    3.8389 H        1 ZINC000003819952    0.1400
40     H40     4.5106   -6.1998    6.2543 H        1 ZINC000003819952    0.1500
41     H41     1.2973   -1.8736    3.2518 H        1 ZINC000003819952    0.1300
42     H42     6.7535   -1.4916    2.2412 H        1 ZINC000003819952    0.1000
43     H43     6.4840   -2.4492    3.7172 H        1 ZINC000003819952    0.0900
44     H44     7.0744   -3.2424    2.2371 H        1 ZINC000003819952    0.1100
@<TRIPOS>BOND
1     1     2     1
2     1     29    1
3     1     30    1
4     1     31    1
5     2     3     1
6     2     32    1
7     2     33    1
8     3     4     1
9     3     34    1
10    3     35    1
11    4     22    1
12    4     5     2
13    5     6     1
14    6     10    1
15    6     7     2
16    7     8     1
17    8     9     1
18    8     36    1
19    9     10    2
20    9     37    1
21    10    11    1
22    11    12    1
23    11    13    1
24    11    22    1
25    13    20    ar
26    13    14    ar
27    14    15    ar
28    14    38    1
29    15    16    ar
30    15    39    1
31    16    17    ar
32    16    40    1
33    17    18    1
34    17    20    ar
35    18    19    3
36    20    21    1
37    22    23    1
38    22    41    1
39    23    28    1
40    23    24    2
41    24    25    1
42    25    26    2
43    26    27    1
44    26    28    1
45    27    42    1
46    27    43    1
47    27    44    1
@<TRIPOS>SUBSTRUCTURE
1   ZINC000003819952 1     RESIDUE    1   A     ZIN   1


@<TRIPOS>MOLECULE
CC1=CC(=CC(=C1O)C)C2=NNC(=O)C(=C2)C3=NC4=C(N3)C=C(C=C4)CN5CCN(CC5)C
62    66    1     0     0
SMALL
USER_CHARGES
@<TRIPOS>ATOM
1      C1     -0.0184    1.5028    0.0103 C.3      1 ZINC000023247659   -0.1200
2      C2      0.0021   -0.0041    0.0020 C.ar     1 ZINC000023247659   -0.1000
3      C3      0.0058   -0.6863   -1.1964 C.ar     1 ZINC000023247659   -0.0700
4      C4      0.0251   -2.0800   -1.2032 C.ar     1 ZINC000023247659   -0.0400
5      C5      0.0297   -2.8169   -2.4907 C.2      1 ZINC000023247659    0.1200
6      N6      0.0208   -2.1476   -3.6182 N.2      1 ZINC000023247659   -0.2000
7      N7      0.0242   -2.7058   -4.7722 N.am     1 ZINC000023247659   -0.4300
8      C8      0.0370   -4.0458   -4.9154 C.2      1 ZINC000023247659    0.4900
9      O9      0.0401   -4.5526   -6.0245 O.2      1 ZINC000023247659   -0.5300
10     C10     0.0478   -4.8834   -3.7095 C.2      1 ZINC000023247659   -0.1100
11     C11     0.0625   -6.3568   -3.7946 C.2      1 ZINC000023247659    0.3500
12     N12     0.0670   -7.1720   -2.7670 N.2      1 ZINC000023247659   -0.4800
13     C13     0.0805   -8.4545   -3.2034 C.ar     1 ZINC000023247659    0.0500
14     C14     0.0902   -9.6914   -2.5505 C.ar     1 ZINC000023247659   -0.0600
15     C15     0.1034  -10.8463   -3.2802 C.ar     1 ZINC000023247659   -0.1100
16     C16     0.1133  -12.1762   -2.5714 C.3      1 ZINC000023247659    0.1000
17     N17    -1.2684  -12.6212   -2.3460 N.3      1 ZINC000023247659   -0.5300
18     C18    -2.0930  -11.5284   -1.8112 C.3      1 ZINC000023247659    0.0200
19     C19    -3.5347  -12.0146   -1.6471 C.3      1 ZINC000023247659    0.0000
20     N20    -3.5628  -13.1645   -0.7336 N.4      1 ZINC000023247659   -0.3900
21     H21    -3.1856  -12.8919    0.1617 H        1 ZINC000023247659    0.4200
22     C22    -4.9490  -13.6198   -0.5625 C.3      1 ZINC000023247659   -0.0500
23     C23    -2.7550  -14.2563   -1.2930 C.3      1 ZINC000023247659    0.0000
24     C24    -1.3069  -13.7887   -1.4541 C.3      1 ZINC000023247659    0.0200
25     C25     0.1075  -10.8074   -4.6671 C.ar     1 ZINC000023247659   -0.0800
26     C26     0.0986   -9.5994   -5.3330 C.ar     1 ZINC000023247659   -0.1000
27     C27     0.0846   -8.4153   -4.6097 C.ar     1 ZINC000023247659    0.0600
28     N28     0.0676   -7.0789   -4.9585 N.pl3    1 ZINC000023247659   -0.5800
29     C29     0.0493   -4.2271   -2.4842 C.2      1 ZINC000023247659    0.0000
30     C30     0.0407   -2.7800    0.0021 C.ar     1 ZINC000023247659   -0.0900
31     C31     0.0369   -2.0923    1.1973 C.ar     1 ZINC000023247659   -0.1000
32     C32     0.0538   -2.8483    2.5008 C.3      1 ZINC000023247659   -0.1100
33     C33     0.0230   -0.7040    1.2009 C.ar     1 ZINC000023247659    0.1200
34     O34     0.0192   -0.0291    2.3801 O.3      1 ZINC000023247659   -0.4900
35     H35     1.0042    1.8801    0.0026 H        1 ZINC000023247659    0.0700
36     H36    -0.5455    1.8639   -0.8728 H        1 ZINC000023247659    0.0700
37     H37    -0.5286    1.8543    0.9071 H        1 ZINC000023247659    0.0800
38     H38    -0.0067   -0.1413   -2.1287 H        1 ZINC000023247659    0.1400
39     H39     0.0171   -2.1475   -5.5654 H        1 ZINC000023247659    0.4500
40     H40     0.0875   -9.7334   -1.4713 H        1 ZINC000023247659    0.1300
41     H41     0.6361  -12.9106   -3.1841 H        1 ZINC000023247659    0.1000
42     H42     0.6228  -12.0735   -1.6133 H        1 ZINC000023247659    0.0600
43     H43    -1.7015  -11.2179   -0.8425 H        1 ZINC000023247659    0.0600
44     H44    -2.0701  -10.6845   -2.5006 H        1 ZINC000023247659    0.1300
45     H45    -4.1451  -11.2099   -1.2371 H        1 ZINC000023247659    0.1300
46     H46    -3.9305  -12.3122   -2.6181 H        1 ZINC000023247659    0.1400
47     H47    -5.3568  -13.9138   -1.5296 H        1 ZINC000023247659    0.1200
48     H48    -4.9701  -14.4731    0.1154 H        1 ZINC000023247659    0.1200
49     H49    -5.5486  -12.8102   -0.1463 H        1 ZINC000023247659    0.1200
50     H50    -2.7873  -15.1135   -0.6205 H        1 ZINC000023247659    0.1400
51     H51    -3.1548  -14.5424   -2.2658 H        1 ZINC000023247659    0.1400
52     H52    -0.7103  -14.5939   -1.8831 H        1 ZINC000023247659    0.1200
53     H53    -0.9024  -13.5154   -0.4795 H        1 ZINC000023247659    0.0600
54     H54     0.1180  -11.7295   -5.2293 H        1 ZINC000023247659    0.1400
55     H55     0.1025   -9.5753   -6.4127 H        1 ZINC000023247659    0.1300
56     H56     0.0621   -6.7190   -5.8593 H        1 ZINC000023247659    0.4400
57     H57     0.0570   -4.7798   -1.5564 H        1 ZINC000023247659    0.1700
58     H58     0.0554   -3.8599   -0.0002 H        1 ZINC000023247659    0.1300
59     H59     1.0854   -3.0163    2.8101 H        1 ZINC000023247659    0.0700
60     H60    -0.4645   -2.2680    3.2642 H        1 ZINC000023247659    0.0800
61     H61    -0.4474   -3.8075    2.3710 H        1 ZINC000023247659    0.0700
62     H62     0.9015    0.1752    2.7191 H        1 ZINC000023247659    0.3900
@<TRIPOS>BOND
1     1     2     1
2     1     35    1
3     1     36    1
4     1     37    1
5     2     33    ar
6     2     3     ar
7     3     4     ar
8     3     38    1
9     4     5     1
10    4     30    ar
11    5     29    1
12    5     6     2
13    6     7     1
14    7     8     am
15    7     39    1
16    8     9     2
17    8     10    1
18    10    11    1
19    10    29    2
20    11    28    1
21    11    12    2
22    12    13    1
23    13    27    ar
24    13    14    ar
25    14    15    ar
26    14    40    1
27    15    16    1
28    15    25    ar
29    16    17    1
30    16    41    1
31    16    42    1
32    17    24    1
33    17    18    1
34    18    19    1
35    18    43    1
36    18    44    1
37    19    20    1
38    19    45    1
39    19    46    1
40    20    21    1
41    20    22    1
42    20    23    1
43    22    47    1
44    22    48    1
45    22    49    1
46    23    24    1
47    23    50    1
48    23    51    1
49    24    52    1
50    24    53    1
51    25    26    ar
52    25    54    1
53    26    27    ar
54    26    55    1
55    27    28    1
56    28    56    1
57    29    57    1
58    30    31    ar
59    30    58    1
60    31    32    1
61    31    33    ar
62    32    59    1
63    32    60    1
64    32    61    1
65    33    34    1
66    34    62    1
@<TRIPOS>SUBSTRUCTURE
1   ZINC000023247659 1     RESIDUE    1   A     ZIN   1


@<TRIPOS>MOLECULE
CS(=O)(=O)C1=CC=C(C=C1)C2=CN=C(C(=N2)C(=O)NC3=CC=CC=C3)N
42    44    1     0     0
SMALL
USER_CHARGES
@<TRIPOS>ATOM
1      C1      1.2922    2.4521    0.0951 C.3      1 ZINC000068244543   -0.6500
2      S2      0.7419    0.7240    0.0564 S.o2     1 ZINC000068244543    2.5000
3      O3      1.4011   -0.0319    1.0630 O.2      1 ZINC000068244543   -0.9400
4      O4     -0.6677    0.6531   -0.1079 O.2      1 ZINC000068244543   -0.9400
5      C5      1.3880    0.0907   -1.4556 C.ar     1 ZINC000068244543   -0.6600
6      C6      0.6399    0.1803   -2.6157 C.ar     1 ZINC000068244543   -0.0200
7      C7      1.1409   -0.3141   -3.8029 C.ar     1 ZINC000068244543   -0.1300
8      C8      2.4032   -0.9041   -3.8315 C.ar     1 ZINC000068244543    0.0300
9      C9      2.9472   -1.4368   -5.1045 C.ar     1 ZINC000068244543    0.0400
10     C10     2.2422   -1.2492   -6.2974 C.ar     1 ZINC000068244543    0.1600
11     N11     2.7210   -1.7206   -7.4324 N.ar     1 ZINC000068244543   -0.4900
12     C12     3.8764   -2.3763   -7.4465 C.ar     1 ZINC000068244543    0.4200
13     N13     4.3780   -2.8698   -8.6363 N.pl3    1 ZINC000068244543   -0.8100
14     C14     4.5878   -2.5668   -6.2498 C.ar     1 ZINC000068244543   -0.0400
15     C15     5.8731   -3.2947   -6.2598 C.2      1 ZINC000068244543    0.5900
16     O16     6.3639   -3.6472   -7.3148 O.2      1 ZINC000068244543   -0.5200
17     N17     6.5019   -3.5679   -5.0994 N.am     1 ZINC000068244543   -0.6500
18     C18     7.7695   -4.1582   -5.1132 C.ar     1 ZINC000068244543    0.1400
19     C19     8.1380   -5.0391   -4.1046 C.ar     1 ZINC000068244543   -0.1400
20     C20     9.3907   -5.6203   -4.1211 C.ar     1 ZINC000068244543   -0.1000
21     C21    10.2779   -5.3256   -5.1401 C.ar     1 ZINC000068244543   -0.1300
22     C22     9.9143   -4.4486   -6.1455 C.ar     1 ZINC000068244543   -0.1000
23     C23     8.6607   -3.8691   -6.1385 C.ar     1 ZINC000068244543   -0.1200
24     N24     4.1035   -2.0850   -5.1099 N.ar     1 ZINC000068244543   -0.3600
25     C25     3.1527   -0.9912   -2.6597 C.ar     1 ZINC000068244543   -0.1100
26     C26     2.6437   -0.4891   -1.4792 C.ar     1 ZINC000068244543   -0.0200
27     H27     2.3814    2.4872    0.0716 H        1 ZINC000068244543    0.1300
28     H28     0.8929    2.9801   -0.7709 H        1 ZINC000068244543    0.1300
29     H29     0.9330    2.9274    1.0079 H        1 ZINC000068244543    0.1300
30     H30    -0.3382    0.6376   -2.5924 H        1 ZINC000068244543    0.1500
31     H31     0.5557   -0.2443   -4.7079 H        1 ZINC000068244543    0.1400
32     H32     1.3025   -0.7170   -6.2894 H        1 ZINC000068244543    0.1800
33     H33     3.7758   -3.0749   -9.3686 H        1 ZINC000068244543    0.4100
34     H34     5.3322   -3.0110   -8.7390 H        1 ZINC000068244543    0.4300
35     H35     6.0751   -3.3552   -4.2548 H        1 ZINC000068244543    0.4200
36     H36     7.4458   -5.2692   -3.3081 H        1 ZINC000068244543    0.1300
37     H37     9.6779   -6.3054   -3.3372 H        1 ZINC000068244543    0.1300
38     H38    11.2571   -5.7812   -5.1505 H        1 ZINC000068244543    0.1300
39     H39    10.6097   -4.2202   -6.9397 H        1 ZINC000068244543    0.1300
40     H40     8.3774   -3.1842   -6.9240 H        1 ZINC000068244543    0.1300
41     H41     4.1313   -1.4476   -2.6761 H        1 ZINC000068244543    0.1400
42     H42     3.2237   -0.5558   -0.5706 H        1 ZINC000068244543    0.1500
@<TRIPOS>BOND
1     1     2     1
2     1     27    1
3     1     28    1
4     1     29    1
5     2     3     2
6     2     4     2
7     2     5     1
8     5     26    ar
9     5     6     ar
10    6     7     ar
11    6     30    1
12    7     8     ar
13    7     31    1
14    8     9     1
15    8     25    ar
16    9     24    ar
17    9     10    ar
18    10    11    ar
19    10    32    1
20    11    12    ar
21    12    13    1
22    12    14    ar
23    13    33    1
24    13    34    1
25    14    15    1
26    14    24    ar
27    15    16    2
28    15    17    am
29    17    18    1
30    17    35    1
31    18    23    ar
32    18    19    ar
33    19    20    ar
34    19    36    1
35    20    21    ar
36    20    37    1
37    21    22    ar
38    21    38    1
39    22    23    ar
40    22    39    1
41    23    40    1
42    25    26    ar
43    25    41    1
44    26    42    1
@<TRIPOS>SUBSTRUCTURE
1   ZINC000068244543 1     RESIDUE    1   A     ZIN   1


@<TRIPOS>MOLECULE
CC(C)S(=O)(=O)C1=CC=C(C=C1)C2=CN=C(C(=N2)C3=CC(=NO3)C4=CC=C(C=C4)CNC)N
59    62    1     0     0
SMALL
USER_CHARGES
@<TRIPOS>ATOM
1      C1     -0.0178    1.4648    0.0101 C.3      1 ZINC000096170459   -0.0500
2      N2      0.0021   -0.0041    0.0020 N.4      1 ZINC000096170459   -0.5100
3      H3      0.4901   -0.3383    0.8195 H        1 ZINC000096170459    0.4300
4      H4     -0.9445   -0.3533    0.0092 H        1 ZINC000096170459    0.4300
5      C5      0.6897   -0.4778   -1.2066 C.3      1 ZINC000096170459    0.0400
6      C6      0.7101   -1.9847   -1.2149 C.ar     1 ZINC000096170459   -0.1600
7      C7      1.7608   -2.6628   -0.6239 C.ar     1 ZINC000096170459   -0.0900
8      C8      1.7845   -4.0429   -0.6286 C.ar     1 ZINC000096170459   -0.0900
9      C9      0.7474   -4.7527   -1.2297 C.ar     1 ZINC000096170459    0.0200
10     C10     0.7673   -6.2372   -1.2374 C.2      1 ZINC000096170459    0.0400
11     N11     1.6860   -7.0135   -0.7164 N.2      1 ZINC000096170459   -0.3300
12     O12     1.4298   -8.1834   -0.8797 O.3      1 ZINC000096170459    0.1100
13     C13     0.2750   -8.3515   -1.5494 C.2      1 ZINC000096170459    0.0400
14     C14    -0.3502   -9.6349   -1.9275 C.ar     1 ZINC000096170459    0.0700
15     N15    -1.6730   -9.7546   -1.9372 N.ar     1 ZINC000096170459   -0.3600
16     C16    -2.2306  -10.9111   -2.2785 C.ar     1 ZINC000096170459    0.0500
17     C17    -3.7076  -11.0458   -2.2903 C.ar     1 ZINC000096170459    0.0200
18     C18    -4.5134   -9.9340   -2.0515 C.ar     1 ZINC000096170459   -0.1100
19     C19    -5.8871  -10.0651   -2.0642 C.ar     1 ZINC000096170459   -0.0200
20     C20    -6.4646  -11.2973   -2.3128 C.ar     1 ZINC000096170459   -0.6500
21     S21    -8.2193  -11.4574   -2.3268 S.o2     1 ZINC000096170459    2.4900
22     O22    -8.4498  -12.8179   -1.9877 O.2      1 ZINC000096170459   -0.9300
23     O23    -8.6738  -10.4057   -1.4862 O.2      1 ZINC000096170459   -0.9300
24     C24    -8.6887  -11.1427   -4.0505 C.3      1 ZINC000096170459   -0.5700
25     C25   -10.2141  -11.1307   -4.1696 C.3      1 ZINC000096170459   -0.1500
26     C26    -8.1321   -9.7874   -4.4914 C.3      1 ZINC000096170459   -0.1500
27     C27    -5.6698  -12.4041   -2.5509 C.ar     1 ZINC000096170459   -0.0200
28     C28    -4.2950  -12.2836   -2.5459 C.ar     1 ZINC000096170459   -0.1300
29     C29    -1.4296  -11.9987   -2.6262 C.ar     1 ZINC000096170459    0.1600
30     N30    -0.1136  -11.8851   -2.6177 N.ar     1 ZINC000096170459   -0.4900
31     C31     0.4529  -10.7331   -2.2841 C.ar     1 ZINC000096170459    0.4000
32     N32     1.8334  -10.6150   -2.2760 N.pl3    1 ZINC000096170459   -0.8200
33     C33    -0.2077   -7.0982   -1.8050 C.2      1 ZINC000096170459   -0.1700
34     C34    -0.3086   -4.0647   -1.8231 C.ar     1 ZINC000096170459   -0.0900
35     C35    -0.3248   -2.6846   -1.8085 C.ar     1 ZINC000096170459   -0.0900
36     H36     1.0047    1.8421    0.0024 H        1 ZINC000096170459    0.1200
37     H37    -0.5450    1.8259   -0.8730 H        1 ZINC000096170459    0.1200
38     H38    -0.5280    1.8163    0.9069 H        1 ZINC000096170459    0.1300
39     H39     0.1625   -0.1167   -2.0897 H        1 ZINC000096170459    0.1400
40     H40     1.7123   -0.1005   -1.2143 H        1 ZINC000096170459    0.1400
41     H41     2.5643   -2.1115   -0.1582 H        1 ZINC000096170459    0.1400
42     H42     2.6057   -4.5714   -0.1675 H        1 ZINC000096170459    0.1400
43     H43    -4.0635   -8.9716   -1.8566 H        1 ZINC000096170459    0.1400
44     H44    -6.5125   -9.2042   -1.8793 H        1 ZINC000096170459    0.1500
45     H45    -8.2807  -11.9276   -4.6873 H        1 ZINC000096170459    0.1400
46     H46   -10.6220  -10.3457   -3.5328 H        1 ZINC000096170459    0.0800
47     H47   -10.4961  -10.9416   -5.2054 H        1 ZINC000096170459    0.0900
48     H48   -10.6106  -12.0961   -3.8555 H        1 ZINC000096170459    0.0700
49     H49    -7.0454   -9.7960   -4.4066 H        1 ZINC000096170459    0.0700
50     H50    -8.4142   -9.5983   -5.5272 H        1 ZINC000096170459    0.0800
51     H51    -8.5401   -9.0025   -3.8546 H        1 ZINC000096170459    0.0800
52     H52    -6.1261  -13.3637   -2.7444 H        1 ZINC000096170459    0.1500
53     H53    -3.6754  -13.1485   -2.7319 H        1 ZINC000096170459    0.1400
54     H54    -1.8869  -12.9371   -2.9030 H        1 ZINC000096170459    0.1900
55     H55     2.3866  -11.3753   -2.5144 H        1 ZINC000096170459    0.4200
56     H56     2.2467   -9.7721   -2.0318 H        1 ZINC000096170459    0.4100
57     H57    -1.1154   -6.8268   -2.3234 H        1 ZINC000096170459    0.1800
58     H58    -1.1150   -4.6102   -2.2907 H        1 ZINC000096170459    0.1400
59     H59    -1.1432   -2.1502   -2.2679 H        1 ZINC000096170459    0.1400
@<TRIPOS>BOND
1     1     2     1
2     1     36    1
3     1     37    1
4     1     38    1
5     2     3     1
6     2     4     1
7     2     5     1
8     5     6     1
9     5     39    1
10    5     40    1
11    6     35    ar
12    6     7     ar
13    7     8     ar
14    7     41    1
15    8     9     ar
16    8     42    1
17    9     10    1
18    9     34    ar
19    10    33    1
20    10    11    2
21    11    12    1
22    12    13    1
23    13    14    1
24    13    33    2
25    14    31    ar
26    14    15    ar
27    15    16    ar
28    16    17    1
29    16    29    ar
30    17    28    ar
31    17    18    ar
32    18    19    ar
33    18    43    1
34    19    20    ar
35    19    44    1
36    20    21    1
37    20    27    ar
38    21    22    2
39    21    23    2
40    21    24    1
41    24    25    1
42    24    26    1
43    24    45    1
44    25    46    1
45    25    47    1
46    25    48    1
47    26    49    1
48    26    50    1
49    26    51    1
50    27    28    ar
51    27    52    1
52    28    53    1
53    29    30    ar
54    29    54    1
55    30    31    ar
56    31    32    1
57    32    55    1
58    32    56    1
59    33    57    1
60    34    35    ar
61    34    58    1
62    35    59    1
@<TRIPOS>SUBSTRUCTURE
1   ZINC000096170459 1     RESIDUE    1   A     ZIN   1


@<TRIPOS>MOLECULE
CC1COCCN1C2=NC(=NC(=C2)C3(CC3)S(=N)(=O)C)C4=C5C=CNC5=NC=C4
53    57    1     0     0
SMALL
USER_CHARGES
@<TRIPOS>ATOM
1      C1     -0.0199    1.3876    2.6651 C.3      1 ZINC000096174406   -0.1500
2      C2     -0.2685    0.5797    1.3899 C.3      1 ZINC000096174406    0.0500
3      H3     -0.2725    1.2492    0.5298 H        1 ZINC000096174406    0.0700
4      C4     -1.6207   -0.1312    1.4905 C.3      1 ZINC000096174406    0.0700
5      O5     -1.8140   -0.9437    0.3296 O.3      1 ZINC000096174406   -0.3800
6      C6     -0.7964   -1.9309    0.1418 C.3      1 ZINC000096174406    0.0600
7      C7      0.5641   -1.2382    0.0275 C.3      1 ZINC000096174406    0.0200
8      N8      0.7958   -0.4215    1.2277 N.3      1 ZINC000096174406   -0.4800
9      C9      2.0430    0.1803    1.1857 C.ar     1 ZINC000096174406    0.3700
10     C10     3.0263   -0.1603    2.1182 C.ar     1 ZINC000096174406   -0.2300
11     C11     4.2563    0.4656    2.0385 C.ar     1 ZINC000096174406    0.2400
12     C12     5.3469    0.1294    3.0226 C.3      1 ZINC000096174406   -0.6000
13     S13     5.3542   -1.5803    3.6287 S.o2     1 ZINC000096174406    2.3400
14     C14     5.4161   -2.6635    2.1748 C.3      1 ZINC000096174406   -0.6400
15     N15     6.6214   -1.7810    4.3932 N.am     1 ZINC000096174406   -1.2100
16     O16     4.2793   -1.8746    4.5103 O.2      1 ZINC000096174406   -0.8800
17     C17     6.6997    0.8210    2.8415 C.3      1 ZINC000096174406   -0.1000
18     C18     5.7820    1.2261    3.9968 C.3      1 ZINC000096174406   -0.0900
19     N19     4.4661    1.3629    1.0883 N.ar     1 ZINC000096174406   -0.5000
20     C20     3.5145    1.6672    0.2158 C.ar     1 ZINC000096174406    0.3900
21     C21     3.7913    2.6774   -0.8321 C.ar     1 ZINC000096174406    0.0300
22     C22     2.7788    3.1149   -1.7054 C.ar     1 ZINC000096174406   -0.1100
23     C23     1.3624    2.7969   -1.8678 C.2      1 ZINC000096174406   -0.1800
24     C24     0.9089    3.5452   -2.8880 C.2      1 ZINC000096174406    0.0600
25     N25     1.9238    4.3144   -3.3883 N.pl3    1 ZINC000096174406   -0.5800
26     C26     3.0829    4.0766   -2.6881 C.ar     1 ZINC000096174406    0.2800
27     N27     4.3141    4.5592   -2.7816 N.ar     1 ZINC000096174406   -0.4800
28     C28     5.2798    4.1670   -1.9773 C.ar     1 ZINC000096174406    0.1300
29     C29     5.0630    3.2306   -0.9820 C.ar     1 ZINC000096174406   -0.1500
30     N30     2.3234    1.0856    0.2549 N.ar     1 ZINC000096174406   -0.5200
31     H31     0.9764    1.8281    2.6278 H        1 ZINC000096174406    0.0500
32     H32    -0.7645    2.1797    2.7444 H        1 ZINC000096174406    0.0700
33     H33    -0.0945    0.7307    3.5318 H        1 ZINC000096174406    0.0700
34     H34    -1.6362   -0.7594    2.3811 H        1 ZINC000096174406    0.0700
35     H35    -2.4177    0.6097    1.5531 H        1 ZINC000096174406    0.1100
36     H36    -0.7879   -2.6115    0.9932 H        1 ZINC000096174406    0.0700
37     H37    -0.9972   -2.4916   -0.7711 H        1 ZINC000096174406    0.1100
38     H38     1.3490   -1.9897   -0.0585 H        1 ZINC000096174406    0.0900
39     H39     0.5738   -0.5983   -0.8549 H        1 ZINC000096174406    0.0600
40     H40     2.8296   -0.8958    2.8843 H        1 ZINC000096174406    0.1600
41     H41     6.3615   -2.5169    1.6526 H        1 ZINC000096174406    0.1300
42     H42     5.3337   -3.7029    2.4924 H        1 ZINC000096174406    0.1400
43     H43     4.5902   -2.4214    1.5060 H        1 ZINC000096174406    0.1100
44     H44     7.4770   -1.6291    3.9624 H        1 ZINC000096174406    0.3800
45     H45     7.5943    0.2485    3.0864 H        1 ZINC000096174406    0.1100
46     H46     6.8007    1.5190    2.0105 H        1 ZINC000096174406    0.1300
47     H47     5.2794    2.1907    3.9258 H        1 ZINC000096174406    0.1100
48     H48     6.0730    0.9202    5.0017 H        1 ZINC000096174406    0.1200
49     H49     0.7893    2.0947   -1.2806 H        1 ZINC000096174406    0.1600
50     H50    -0.1058    3.5400   -3.2579 H        1 ZINC000096174406    0.1800
51     H51     1.8382    4.9360   -4.1280 H        1 ZINC000096174406    0.4200
52     H52     6.2663    4.5908   -2.0945 H        1 ZINC000096174406    0.1700
53     H53     5.8713    2.9250   -0.3342 H        1 ZINC000096174406    0.1500
@<TRIPOS>BOND
1     1     2     1
2     1     31    1
3     1     32    1
4     1     33    1
5     2     3     1
6     2     8     1
7     2     4     1
8     4     5     1
9     4     34    1
10    4     35    1
11    5     6     1
12    6     7     1
13    6     36    1
14    6     37    1
15    7     8     1
16    7     38    1
17    7     39    1
18    8     9     1
19    9     30    ar
20    9     10    ar
21    10    11    ar
22    10    40    1
23    11    12    1
24    11    19    ar
25    12    18    1
26    12    13    1
27    12    17    1
28    13    14    1
29    13    15    2
30    13    16    2
31    14    41    1
32    14    42    1
33    14    43    1
34    15    44    1
35    17    18    1
36    17    45    1
37    17    46    1
38    18    47    1
39    18    48    1
40    19    20    ar
41    20    21    1
42    20    30    ar
43    21    29    ar
44    21    22    ar
45    22    26    ar
46    22    23    1
47    23    24    2
48    23    49    1
49    24    25    1
50    24    50    1
51    25    26    1
52    25    51    1
53    26    27    ar
54    27    28    ar
55    28    29    ar
56    28    52    1
57    29    53    1
@<TRIPOS>SUBSTRUCTURE
1   ZINC000096174406 1     RESIDUE    1   A     ZIN   1


@<TRIPOS>MOLECULE
CC1COCCN1C2=NC(=NC(=C2)C3(CC3)S(=O)(=O)C)C4=C5C=CNC5=CC=C4
53    57    1     0     0
SMALL
USER_CHARGES
@<TRIPOS>ATOM
1      C1     -0.0742    1.2987    2.5956 C.3      1 ZINC000068244750   -0.1500
2      C2     -0.3036    0.4621    1.3353 C.3      1 ZINC000068244750    0.0500
3      H3     -0.3217    1.1154    0.4630 H        1 ZINC000068244750    0.0700
4      C4     -1.6397   -0.2769    1.4484 C.3      1 ZINC000068244750    0.0700
5      O5     -1.8138   -1.1147    0.3025 O.3      1 ZINC000068244750   -0.3800
6      C6     -0.7742   -2.0822    0.1334 C.3      1 ZINC000068244750    0.0700
7      C7      0.5706   -1.3616    0.0070 C.3      1 ZINC000068244750    0.0200
8      N8      0.7829   -0.5179    1.1922 N.3      1 ZINC000068244750   -0.4800
9      C9      2.0165    0.1108    1.1397 C.ar     1 ZINC000068244750    0.3600
10     C10     3.0040   -0.1864    2.0823 C.ar     1 ZINC000068244750   -0.2000
11     C11     4.2200    0.4647    1.9920 C.ar     1 ZINC000068244750    0.2300
12     C12     5.3144    0.1753    2.9867 C.3      1 ZINC000068244750   -0.6000
13     S13     6.4135    1.5672    3.3677 S.o2     1 ZINC000068244750    2.4600
14     C14     5.2374    2.8332    3.9196 C.3      1 ZINC000068244750   -0.6500
15     O15     7.2380    1.2053    4.4670 O.2      1 ZINC000068244750   -0.9300
16     O16     7.0204    2.0084    2.1609 O.2      1 ZINC000068244750   -0.9100
17     C17     5.0002   -0.8072    4.1167 C.3      1 ZINC000068244750   -0.1200
18     C18     5.9277   -1.2263    2.9744 C.3      1 ZINC000068244750   -0.1000
19     N19     4.4133    1.3449    1.0222 N.ar     1 ZINC000068244750   -0.5100
20     C20     3.4577    1.6081    0.1399 C.ar     1 ZINC000068244750    0.4000
21     C21     3.7150    2.5993   -0.9290 C.ar     1 ZINC000068244750   -0.0200
22     C22     2.6813    2.9883   -1.8005 C.ar     1 ZINC000068244750   -0.0600
23     C23     1.2722    2.6229   -1.9319 C.2      1 ZINC000068244750   -0.1900
24     C24     0.7777    3.3288   -2.9635 C.2      1 ZINC000068244750    0.0500
25     N25     1.7578    4.1154   -3.5012 N.pl3    1 ZINC000068244750   -0.6000
26     C26     2.9364    3.9309   -2.8122 C.ar     1 ZINC000068244750    0.0800
27     C27     4.2118    4.4704   -2.9398 C.ar     1 ZINC000068244750   -0.1000
28     C28     5.2185    4.0826   -2.0802 C.ar     1 ZINC000068244750   -0.1100
29     C29     4.9787    3.1588   -1.0775 C.ar     1 ZINC000068244750   -0.0800
30     N30     2.2792    1.0006    0.1891 N.ar     1 ZINC000068244750   -0.5300
31     H31     0.9071    1.7705    2.5449 H        1 ZINC000068244750    0.0500
32     H32    -0.8438    2.0674    2.6665 H        1 ZINC000068244750    0.0700
33     H33    -0.1226    0.6542    3.4733 H        1 ZINC000068244750    0.0700
34     H34    -1.6420   -0.8888    2.3504 H        1 ZINC000068244750    0.0600
35     H35    -2.4530    0.4471    1.4969 H        1 ZINC000068244750    0.1000
36     H36    -0.7513   -2.7466    0.9972 H        1 ZINC000068244750    0.0600
37     H37    -0.9617   -2.6639   -0.7692 H        1 ZINC000068244750    0.1000
38     H38     1.3722   -2.0967   -0.0647 H        1 ZINC000068244750    0.0900
39     H39     0.5668   -0.7379   -0.8869 H        1 ZINC000068244750    0.0600
40     H40     2.8212   -0.9085    2.8644 H        1 ZINC000068244750    0.1600
41     H41     4.7524    2.5029    4.8382 H        1 ZINC000068244750    0.1300
42     H42     5.7687    3.7668    4.1047 H        1 ZINC000068244750    0.1300
43     H43     4.4843    2.9907    3.1475 H        1 ZINC000068244750    0.1200
44     H44     5.4539   -0.6172    5.0894 H        1 ZINC000068244750    0.1300
45     H45     4.0020   -1.2442    4.1406 H        1 ZINC000068244750    0.1200
46     H46     5.5397   -1.9391    2.2467 H        1 ZINC000068244750    0.1200
47     H47     6.9916   -1.3121    3.1956 H        1 ZINC000068244750    0.1200
48     H48     0.7309    1.9193   -1.3169 H        1 ZINC000068244750    0.1500
49     H49    -0.2423    3.2812   -3.3154 H        1 ZINC000068244750    0.1700
50     H50     1.6409    4.7141   -4.2554 H        1 ZINC000068244750    0.4200
51     H51     4.4148    5.1949   -3.7146 H        1 ZINC000068244750    0.1200
52     H52     6.2054    4.5075   -2.1889 H        1 ZINC000068244750    0.1300
53     H53     5.7782    2.8661   -0.4130 H        1 ZINC000068244750    0.1500
@<TRIPOS>BOND
1     1     2     1
2     1     31    1
3     1     32    1
4     1     33    1
5     2     3     1
6     2     8     1
7     2     4     1
8     4     5     1
9     4     34    1
10    4     35    1
11    5     6     1
12    6     7     1
13    6     36    1
14    6     37    1
15    7     8     1
16    7     38    1
17    7     39    1
18    8     9     1
19    9     30    ar
20    9     10    ar
21    10    11    ar
22    10    40    1
23    11    12    1
24    11    19    ar
25    12    18    1
26    12    13    1
27    12    17    1
28    13    14    1
29    13    15    2
30    13    16    2
31    14    41    1
32    14    42    1
33    14    43    1
34    17    18    1
35    17    44    1
36    17    45    1
37    18    46    1
38    18    47    1
39    19    20    ar
40    20    21    1
41    20    30    ar
42    21    29    ar
43    21    22    ar
44    22    26    ar
45    22    23    1
46    23    24    2
47    23    48    1
48    24    25    1
49    24    49    1
50    25    26    1
51    25    50    1
52    26    27    ar
53    27    28    ar
54    27    51    1
55    28    29    ar
56    28    52    1
57    29    53    1
@<TRIPOS>SUBSTRUCTURE
1   ZINC000068244750 1     RESIDUE    1   A     ZIN   1


@<TRIPOS>MOLECULE
CC(C)(C#N)C1=CC=C(C=C1)N2C3=C4C=C(C=CC4=NC=C3COC2=O)C5=CC6=CC=CC=C6N=C5
58    63    1     0     0
SMALL
USER_CHARGES
@<TRIPOS>ATOM
1      C1     -1.3317    0.4745   -0.2980 C.3      1 ZINC000096170445   -0.1500
2      C2      0.0621   -0.0372    0.0714 C.3      1 ZINC000096170445    0.0800
3      C3      0.8682    1.0952    0.7108 C.3      1 ZINC000096170445   -0.1400
4      C4     -0.0612   -1.1512    1.0257 C.1      1 ZINC000096170445    0.2200
5      N5     -0.1563   -2.0109    1.7621 N.1      1 ZINC000096170445   -0.4200
6      C6      0.7672   -0.5160   -1.1714 C.ar     1 ZINC000096170445   -0.0600
7      C7      0.2046   -0.2902   -2.4142 C.ar     1 ZINC000096170445   -0.1000
8      C8      0.8483   -0.7278   -3.5551 C.ar     1 ZINC000096170445   -0.1000
9      C9      2.0620   -1.3947   -3.4532 C.ar     1 ZINC000096170445    0.1300
10     N10     2.7175   -1.8393   -4.6083 N.am     1 ZINC000096170445   -0.5100
11     C11     3.2403   -0.9491   -5.4772 C.2      1 ZINC000096170445    0.6600
12     O12     3.1662    0.2397   -5.2380 O.2      1 ZINC000096170445   -0.4700
13     O13     3.8433   -1.3653   -6.6059 O.3      1 ZINC000096170445   -0.3300
14     C14     4.5761   -2.6202   -6.5484 C.3      1 ZINC000096170445    0.1200
15     C15     3.7364   -3.6377   -5.8199 C.ar     1 ZINC000096170445   -0.2400
16     C16     3.8518   -4.9927   -6.0864 C.ar     1 ZINC000096170445    0.1800
17     N17     3.1207   -5.8813   -5.4512 N.ar     1 ZINC000096170445   -0.4800
18     C18     2.2313   -5.5281   -4.5167 C.ar     1 ZINC000096170445    0.1600
19     C19     1.4633   -6.5001   -3.8502 C.ar     1 ZINC000096170445   -0.0900
20     C20     0.5641   -6.1271   -2.9033 C.ar     1 ZINC000096170445   -0.0800
21     C21     0.3839   -4.7747   -2.5729 C.ar     1 ZINC000096170445   -0.0300
22     C22    -0.6050   -4.3949   -1.5348 C.ar     1 ZINC000096170445   -0.1100
23     C23    -0.8929   -3.0421   -1.2937 C.ar     1 ZINC000096170445    0.1300
24     N24    -1.7611   -2.6779   -0.3845 N.ar     1 ZINC000096170445   -0.4600
25     C25    -2.4168   -3.5749    0.3596 C.ar     1 ZINC000096170445    0.1400
26     C26    -3.3463   -3.1645    1.3312 C.ar     1 ZINC000096170445   -0.0900
27     C27    -4.0018   -4.0958    2.0763 C.ar     1 ZINC000096170445   -0.1000
28     C28    -3.7680   -5.4575    1.8943 C.ar     1 ZINC000096170445   -0.1100
29     C29    -2.8754   -5.8942    0.9639 C.ar     1 ZINC000096170445   -0.1000
30     C30    -2.1809   -4.9608    0.1758 C.ar     1 ZINC000096170445   -0.1000
31     C31    -1.2565   -5.3741   -0.7988 C.ar     1 ZINC000096170445   -0.0400
32     C32     1.1236   -3.7939   -3.2097 C.ar     1 ZINC000096170445   -0.1100
33     C33     2.0552   -4.1598   -4.1881 C.ar     1 ZINC000096170445   -0.1100
34     C34     2.8382   -3.1985   -4.8633 C.ar     1 ZINC000096170445    0.2300
35     C35     2.6246   -1.6196   -2.2038 C.ar     1 ZINC000096170445   -0.1000
36     C36     1.9783   -1.1753   -1.0669 C.ar     1 ZINC000096170445   -0.1000
37     H37    -1.2404    1.2994   -1.0046 H        1 ZINC000096170445    0.0800
38     H38    -1.9059   -0.3323   -0.7536 H        1 ZINC000096170445    0.0900
39     H39    -1.8417    0.8208    0.6009 H        1 ZINC000096170445    0.0700
40     H40     0.3582    1.4416    1.6098 H        1 ZINC000096170445    0.0700
41     H41     1.8611    0.7307    0.9740 H        1 ZINC000096170445    0.0700
42     H42     0.9594    1.9201    0.0042 H        1 ZINC000096170445    0.0800
43     H43    -0.7394    0.2286   -2.4928 H        1 ZINC000096170445    0.1500
44     H44     0.4080   -0.5517   -4.5255 H        1 ZINC000096170445    0.1400
45     H45     4.7798   -2.9712   -7.5600 H        1 ZINC000096170445    0.1400
46     H46     5.5148   -2.4713   -6.0147 H        1 ZINC000096170445    0.1000
47     H47     4.5577   -5.3258   -6.8328 H        1 ZINC000096170445    0.1700
48     H48     1.5887   -7.5451   -4.0923 H        1 ZINC000096170445    0.1500
49     H49    -0.0206   -6.8813   -2.3977 H        1 ZINC000096170445    0.1400
50     H50    -0.3857   -2.2840   -1.8720 H        1 ZINC000096170445    0.1600
51     H51    -3.5393   -2.1132    1.4861 H        1 ZINC000096170445    0.1300
52     H52    -4.7146   -3.7742    2.8211 H        1 ZINC000096170445    0.1300
53     H53    -4.3016   -6.1755    2.4994 H        1 ZINC000096170445    0.1300
54     H54    -2.7022   -6.9521    0.8320 H        1 ZINC000096170445    0.1300
55     H55    -1.0561   -6.4220   -0.9667 H        1 ZINC000096170445    0.1400
56     H56     0.9828   -2.7540   -2.9542 H        1 ZINC000096170445    0.1600
57     H57     3.5684   -2.1380   -2.1213 H        1 ZINC000096170445    0.1300
58     H58     2.4155   -1.3495   -0.0949 H        1 ZINC000096170445    0.1400
@<TRIPOS>BOND
1     1     2     1
2     1     37    1
3     1     38    1
4     1     39    1
5     2     3     1
6     2     4     1
7     2     6     1
8     3     40    1
9     3     41    1
10    3     42    1
11    4     5     3
12    6     36    ar
13    6     7     ar
14    7     8     ar
15    7     43    1
16    8     9     ar
17    8     44    1
18    9     10    1
19    9     35    ar
20    10    34    1
21    10    11    am
22    11    12    2
23    11    13    1
24    13    14    1
25    14    15    1
26    14    45    1
27    14    46    1
28    15    34    ar
29    15    16    ar
30    16    17    ar
31    16    47    1
32    17    18    ar
33    18    33    ar
34    18    19    ar
35    19    20    ar
36    19    48    1
37    20    21    ar
38    20    49    1
39    21    22    1
40    21    32    ar
41    22    31    ar
42    22    23    ar
43    23    24    ar
44    23    50    1
45    24    25    ar
46    25    30    ar
47    25    26    ar
48    26    27    ar
49    26    51    1
50    27    28    ar
51    27    52    1
52    28    29    ar
53    28    53    1
54    29    30    ar
55    29    54    1
56    30    31    ar
57    31    55    1
58    32    33    ar
59    32    56    1
60    33    34    ar
61    35    36    ar
62    35    57    1
63    36    58    1
@<TRIPOS>SUBSTRUCTURE
1   ZINC000096170445 1     RESIDUE    1   A     ZIN   1


@<TRIPOS>MOLECULE
C1=CC(=CC(=C1)N2C(=O)C=CC3=CN=C4C=CC(=CC4=C32)C5=CN=C(C=C5)N)C(F)(F)F
47    51    1     0     0
SMALL
USER_CHARGES
@<TRIPOS>ATOM
1      N1      0.1403    1.3853   -1.5937 N.pl3    1 ZINC000071318831   -0.8500
2      C2      0.1597   -0.0032   -1.5510 C.ar     1 ZINC000071318831    0.4100
3      C3     -0.9685   -0.6929   -1.1160 C.ar     1 ZINC000071318831   -0.2400
4      C4     -0.9416   -2.0731   -1.0769 C.ar     1 ZINC000071318831   -0.0100
5      C5      0.2281   -2.7277   -1.4794 C.ar     1 ZINC000071318831   -0.1700
6      C6      0.3069   -4.2086   -1.4561 C.ar     1 ZINC000071318831   -0.0200
7      C7     -0.8158   -4.9727   -1.8041 C.ar     1 ZINC000071318831   -0.0800
8      C8     -0.7674   -6.3318   -1.7896 C.ar     1 ZINC000071318831   -0.0900
9      C9      0.4166   -6.9928   -1.4232 C.ar     1 ZINC000071318831    0.1600
10     N10     0.4705   -8.3333   -1.4069 N.ar     1 ZINC000071318831   -0.4900
11     C11     1.5531   -8.9857   -1.0723 C.ar     1 ZINC000071318831    0.2000
12     C12     2.7312   -8.3062   -0.7077 C.ar     1 ZINC000071318831   -0.1900
13     C13     2.7426   -6.9030   -0.7037 C.ar     1 ZINC000071318831    0.2400
14     C14     1.5553   -6.2273   -1.0707 C.ar     1 ZINC000071318831   -0.1200
15     C15     1.4912   -4.8306   -1.0959 C.ar     1 ZINC000071318831   -0.1300
16     N16     3.8786   -6.2257   -0.3530 N.am     1 ZINC000071318831   -0.4600
17     C17     3.8814   -4.8260   -0.3511 C.ar     1 ZINC000071318831    0.1200
18     C18     3.4784   -4.1309    0.7815 C.ar     1 ZINC000071318831   -0.0700
19     C19     3.4822   -2.7496    0.7802 C.ar     1 ZINC000071318831   -0.1000
20     C20     3.8863   -2.0590   -0.3474 C.ar     1 ZINC000071318831   -0.0500
21     C21     4.2883   -2.7483   -1.4771 C.ar     1 ZINC000071318831   -0.1800
22     C22     4.7285   -1.9916   -2.7038 C.3      1 ZINC000071318831    0.5100
23     F23     4.6443   -0.6168   -2.4587 F        1 ZINC000071318831   -0.1600
24     F24     6.0506   -2.3303   -3.0113 F        1 ZINC000071318831   -0.1700
25     F25     3.8992   -2.3251   -3.7800 F        1 ZINC000071318831   -0.1700
26     C26     4.2927   -4.1292   -1.4801 C.ar     1 ZINC000071318831   -0.0600
27     C27     4.9943   -6.8979   -0.0091 C.2      1 ZINC000071318831    0.5300
28     O28     5.9980   -6.2791    0.3007 O.2      1 ZINC000071318831   -0.5100
29     C29     5.0164   -8.3075   -0.0023 C.2      1 ZINC000071318831   -0.2200
30     C30     3.9067   -9.0101   -0.3449 C.2      1 ZINC000071318831    0.0000
31     C31     1.3166   -1.9696   -1.9024 C.ar     1 ZINC000071318831    0.1600
32     N32     1.2496   -0.6538   -1.9300 N.ar     1 ZINC000071318831   -0.5300
33     H33     0.9216    1.8721   -1.8996 H        1 ZINC000071318831    0.4100
34     H34    -0.6559    1.8678   -1.3214 H        1 ZINC000071318831    0.4100
35     H35    -1.8544   -0.1549   -0.8123 H        1 ZINC000071318831    0.1400
36     H36    -1.8023   -2.6337   -0.7434 H        1 ZINC000071318831    0.1400
37     H37    -1.7317   -4.4754   -2.0873 H        1 ZINC000071318831    0.1400
38     H38    -1.6420   -6.9046   -2.0604 H        1 ZINC000071318831    0.1500
39     H39     1.5434  -10.0657   -1.0753 H        1 ZINC000071318831    0.1800
40     H40     2.3571   -4.2414   -0.8323 H        1 ZINC000071318831    0.1600
41     H41     3.1619   -4.6697    1.6624 H        1 ZINC000071318831    0.1400
42     H42     3.1689   -2.2085    1.6607 H        1 ZINC000071318831    0.1500
43     H43     3.8878   -0.9790   -0.3462 H        1 ZINC000071318831    0.1500
44     H44     4.6067   -4.6669   -2.3626 H        1 ZINC000071318831    0.1400
45     H45     5.9195   -8.8302    0.2764 H        1 ZINC000071318831    0.1600
46     H46     3.9192  -10.0900   -0.3407 H        1 ZINC000071318831    0.1600
47     H47     2.2240   -2.4652   -2.2147 H        1 ZINC000071318831    0.1500
@<TRIPOS>BOND
1     1     2     1
2     1     33    1
3     1     34    1
4     2     32    ar
5     2     3     ar
6     3     4     ar
7     3     35    1
8     4     5     ar
9     4     36    1
10    5     6     1
11    5     31    ar
12    6     15    ar
13    6     7     ar
14    7     8     ar
15    7     37    1
16    8     9     ar
17    8     38    1
18    9     14    ar
19    9     10    ar
20    10    11    ar
21    11    12    ar
22    11    39    1
23    12    30    1
24    12    13    ar
25    13    14    ar
26    13    16    1
27    14    15    ar
28    15    40    1
29    16    17    1
30    16    27    am
31    17    26    ar
32    17    18    ar
33    18    19    ar
34    18    41    1
35    19    20    ar
36    19    42    1
37    20    21    ar
38    20    43    1
39    21    22    1
40    21    26    ar
41    22    23    1
42    22    24    1
43    22    25    1
44    26    44    1
45    27    28    2
46    27    29    1
47    29    30    2
48    29    45    1
49    30    46    1
50    31    32    ar
51    31    47    1
@<TRIPOS>SUBSTRUCTURE
1   ZINC000071318831 1     RESIDUE    1   A     ZIN   1


@<TRIPOS>MOLECULE
CC(C)(C#N)C1=CC=C(C=C1)N2C3=C4C=C(C=CC4=NC=C3N(C2=O)C)C5=CC6=CC=CC=C6N=C5
59    64    1     0     0
SMALL
USER_CHARGES
@<TRIPOS>ATOM
1      C1      0.6404    1.3557    0.1409 C.3      1 ZINC000024760115    0.1000
2      N2      0.2763   -0.0618    0.0741 N.am     1 ZINC000024760115   -0.5200
3      C3      0.4383   -0.8693   -0.9920 C.2      1 ZINC000024760115    0.6800
4      O4      0.9138   -0.5349   -2.0611 O.2      1 ZINC000024760115   -0.5300
5      N5     -0.0075   -2.1044   -0.6909 N.am     1 ZINC000024760115   -0.4800
6      C6     -0.0005   -3.2101   -1.5512 C.ar     1 ZINC000024760115    0.1300
7      C7     -1.0898   -3.4565   -2.3762 C.ar     1 ZINC000024760115   -0.0900
8      C8     -1.0798   -4.5471   -3.2236 C.ar     1 ZINC000024760115   -0.1000
9      C9      0.0137   -5.3932   -3.2509 C.ar     1 ZINC000024760115   -0.0600
10     C10     0.0214   -6.5823   -4.1767 C.3      1 ZINC000024760115    0.0800
11     C11     1.3359   -7.3478   -4.0127 C.3      1 ZINC000024760115   -0.1500
12     C12    -1.1513   -7.5032   -3.8338 C.3      1 ZINC000024760115   -0.1400
13     C13    -0.1076   -6.1212   -5.5687 C.1      1 ZINC000024760115    0.2100
14     N14    -0.2071   -5.7654   -6.6429 N.1      1 ZINC000024760115   -0.4200
15     C15     1.1002   -5.1502   -2.4309 C.ar     1 ZINC000024760115   -0.1000
16     C16     1.0982   -4.0585   -1.5848 C.ar     1 ZINC000024760115   -0.1000
17     C17    -0.4725   -2.0960    0.6110 C.ar     1 ZINC000024760115    0.1400
18     C18    -0.2911   -0.8082    1.1037 C.ar     1 ZINC000024760115    0.0200
19     C19    -0.6773   -0.5118    2.4106 C.ar     1 ZINC000024760115    0.1700
20     N20    -1.2098   -1.4223    3.1909 N.ar     1 ZINC000024760115   -0.4600
21     C21    -1.4117   -2.6796    2.7790 C.ar     1 ZINC000024760115    0.1300
22     C22    -1.9853   -3.6328    3.6389 C.ar     1 ZINC000024760115   -0.0800
23     C23    -2.1859   -4.9061    3.2096 C.ar     1 ZINC000024760115   -0.0900
24     C24    -1.8274   -5.2929    1.9093 C.ar     1 ZINC000024760115   -0.0300
25     C25    -2.0571   -6.6894    1.4658 C.ar     1 ZINC000024760115   -0.1000
26     C26    -1.6015   -7.1158    0.2081 C.ar     1 ZINC000024760115    0.1400
27     N27    -1.7905   -8.3418   -0.2095 N.ar     1 ZINC000024760115   -0.4600
28     C28    -2.4257   -9.2489    0.5401 C.ar     1 ZINC000024760115    0.1300
29     C29    -2.6187  -10.5613    0.0747 C.ar     1 ZINC000024760115   -0.0900
30     C30    -3.2679  -11.4674    0.8557 C.ar     1 ZINC000024760115   -0.1000
31     C31    -3.7484  -11.1176    2.1161 C.ar     1 ZINC000024760115   -0.1100
32     C32    -3.5810   -9.8570    2.6018 C.ar     1 ZINC000024760115   -0.1000
33     C33    -2.9153   -8.8953    1.8228 C.ar     1 ZINC000024760115   -0.1000
34     C34    -2.7186   -7.5855    2.2930 C.ar     1 ZINC000024760115   -0.0400
35     C35    -1.2612   -4.3785    1.0380 C.ar     1 ZINC000024760115   -0.0900
36     C36    -1.0438   -3.0634    1.4646 C.ar     1 ZINC000024760115   -0.0600
37     H37     1.6690    1.4506    0.4886 H        1 ZINC000024760115    0.0800
38     H38     0.5491    1.8013   -0.8497 H        1 ZINC000024760115    0.0900
39     H39    -0.0262    1.8698    0.8334 H        1 ZINC000024760115    0.0900
40     H40    -1.9443   -2.7963   -2.3550 H        1 ZINC000024760115    0.1300
41     H41    -1.9269   -4.7396   -3.8652 H        1 ZINC000024760115    0.1400
42     H42     1.4314   -7.6892   -2.9820 H        1 ZINC000024760115    0.0900
43     H43     1.3415   -8.2078   -4.6823 H        1 ZINC000024760115    0.0700
44     H44     2.1714   -6.6917   -4.2570 H        1 ZINC000024760115    0.0700
45     H45    -2.0878   -6.9579   -3.9506 H        1 ZINC000024760115    0.0700
46     H46    -1.1457   -8.3633   -4.5034 H        1 ZINC000024760115    0.0700
47     H47    -1.0558   -7.8446   -2.8031 H        1 ZINC000024760115    0.0900
48     H48     1.9529   -5.8125   -2.4548 H        1 ZINC000024760115    0.1500
49     H49     1.9472   -3.8690   -0.9448 H        1 ZINC000024760115    0.1300
50     H50    -0.5345    0.4896    2.7890 H        1 ZINC000024760115    0.1700
51     H51    -2.2668   -3.3522    4.6431 H        1 ZINC000024760115    0.1500
52     H52    -2.6268   -5.6305    3.8784 H        1 ZINC000024760115    0.1400
53     H53    -1.0832   -6.4155   -0.4302 H        1 ZINC000024760115    0.1600
54     H54    -2.2533  -10.8496   -0.8998 H        1 ZINC000024760115    0.1400
55     H55    -3.4134  -12.4740    0.4924 H        1 ZINC000024760115    0.1300
56     H56    -4.2604  -11.8561    2.7152 H        1 ZINC000024760115    0.1300
57     H57    -3.9574   -9.5975    3.5802 H        1 ZINC000024760115    0.1300
58     H58    -3.0753   -7.2845    3.2670 H        1 ZINC000024760115    0.1400
59     H59    -0.9865   -4.6784    0.0375 H        1 ZINC000024760115    0.1300
@<TRIPOS>BOND
1     1     2     1
2     1     37    1
3     1     38    1
4     1     39    1
5     2     18    1
6     2     3     am
7     3     4     2
8     3     5     am
9     5     6     1
10    5     17    1
11    6     16    ar
12    6     7     ar
13    7     8     ar
14    7     40    1
15    8     9     ar
16    8     41    1
17    9     10    1
18    9     15    ar
19    10    11    1
20    10    12    1
21    10    13    1
22    11    42    1
23    11    43    1
24    11    44    1
25    12    45    1
26    12    46    1
27    12    47    1
28    13    14    3
29    15    16    ar
30    15    48    1
31    16    49    1
32    17    36    ar
33    17    18    ar
34    18    19    ar
35    19    20    ar
36    19    50    1
37    20    21    ar
38    21    36    ar
39    21    22    ar
40    22    23    ar
41    22    51    1
42    23    24    ar
43    23    52    1
44    24    25    1
45    24    35    ar
46    25    34    ar
47    25    26    ar
48    26    27    ar
49    26    53    1
50    27    28    ar
51    28    33    ar
52    28    29    ar
53    29    30    ar
54    29    54    1
55    30    31    ar
56    30    55    1
57    31    32    ar
58    31    56    1
59    32    33    ar
60    32    57    1
61    33    34    ar
62    34    58    1
63    35    36    ar
64    35    59    1
@<TRIPOS>SUBSTRUCTURE
1   ZINC000024760115 1     RESIDUE    1   A     ZIN   1


@<TRIPOS>MOLECULE
C1CCC(CC1)COC2=NC(=NC(=C2N=O)N)N
35    36    1     0     0
SMALL
USER_CHARGES
@<TRIPOS>ATOM
1      N1     -0.0097    1.3700    0.0048 N.pl3    1 ZINC000003814479   -0.7900
2      C2      0.0054   -0.0040   -0.0003 C.ar     1 ZINC000003814479    0.6800
3      N3     -1.1560   -0.6396    0.0321 N.ar     1 ZINC000003814479   -0.6600
4      C4     -1.2246   -1.9641    0.0297 C.ar     1 ZINC000003814479    0.5800
5      N5     -2.4348   -2.6098    0.0631 N.pl3    1 ZINC000003814479   -0.7800
6      C6      0.0388   -2.7204   -0.0104 C.ar     1 ZINC000003814479   -0.3000
7      N7      0.0551   -4.0438   -0.0158 N.2      1 ZINC000003814479   -0.3000
8      O8      1.1137   -4.6402    0.0697 O.2      1 ZINC000003814479    0.0300
9      C9      1.2818   -1.9338   -0.0447 C.ar     1 ZINC000003814479    0.4900
10     O10     2.4878   -2.5402   -0.0826 O.3      1 ZINC000003814479   -0.2500
11     C11     3.6388   -1.6938   -0.1140 C.3      1 ZINC000003814479    0.0600
12     C12     4.9034   -2.5540   -0.1545 C.3      1 ZINC000003814479   -0.0900
13     C13     4.9435   -3.3405   -1.4663 C.3      1 ZINC000003814479   -0.1200
14     C14     6.2082   -4.2007   -1.5068 C.3      1 ZINC000003814479   -0.1200
15     C15     7.4411   -3.2994   -1.4146 C.3      1 ZINC000003814479   -0.1200
16     C16     7.4011   -2.5129   -0.1029 C.3      1 ZINC000003814479   -0.1200
17     C17     6.1364   -1.6528   -0.0624 C.3      1 ZINC000003814479   -0.1100
18     N18     1.1821   -0.6146   -0.0427 N.ar     1 ZINC000003814479   -0.6700
19     H19     0.8244    1.8643   -0.0222 H        1 ZINC000003814479    0.4200
20     H20    -0.8547    1.8456    0.0313 H        1 ZINC000003814479    0.4200
21     H21    -3.2539   -2.1000    0.1638 H        1 ZINC000003814479    0.4200
22     H22    -2.4713   -3.5761   -0.0140 H        1 ZINC000003814479    0.4300
23     H23     3.6008   -1.0616   -1.0012 H        1 ZINC000003814479    0.0700
24     H24     3.6537   -1.0676    0.7780 H        1 ZINC000003814479    0.0700
25     H25     4.8975   -3.2485    0.6855 H        1 ZINC000003814479    0.0900
26     H26     4.0651   -3.9826   -1.5319 H        1 ZINC000003814479    0.0800
27     H27     4.9495   -2.6459   -2.3063 H        1 ZINC000003814479    0.0600
28     H28     6.2022   -4.8952   -0.6667 H        1 ZINC000003814479    0.0700
29     H29     6.2367   -4.7610   -2.4413 H        1 ZINC000003814479    0.0600
30     H30     8.3421   -3.9122   -1.4435 H        1 ZINC000003814479    0.0600
31     H31     7.4471   -2.6049   -2.2547 H        1 ZINC000003814479    0.0600
32     H32     7.3951   -3.2075    0.7372 H        1 ZINC000003814479    0.0600
33     H33     8.2794   -1.8709   -0.0372 H        1 ZINC000003814479    0.0600
34     H34     6.1424   -0.9582   -0.9024 H        1 ZINC000003814479    0.0600
35     H35     6.1079   -1.0924    0.8721 H        1 ZINC000003814479    0.0600
@<TRIPOS>BOND
1     1     2     1
2     1     19    1
3     1     20    1
4     2     18    ar
5     2     3     ar
6     3     4     ar
7     4     5     1
8     4     6     ar
9     5     21    1
10    5     22    1
11    6     7     1
12    6     9     ar
13    7     8     2
14    9     10    1
15    9     18    ar
16    10    11    1
17    11    12    1
18    11    23    1
19    11    24    1
20    12    17    1
21    12    13    1
22    12    25    1
23    13    14    1
24    13    26    1
25    13    27    1
26    14    15    1
27    14    28    1
28    14    29    1
29    15    16    1
30    15    30    1
31    15    31    1
32    16    17    1
33    16    32    1
34    16    33    1
35    17    34    1
36    17    35    1
@<TRIPOS>SUBSTRUCTURE
1   ZINC000003814479 1     RESIDUE    1   A     ZIN   1


@<TRIPOS>MOLECULE
C1COCCN1C2=NC(=NC3=C2OC4=C3C=CC=N4)C5=CC(=CC=C5)O
42    46    1     0     0
SMALL
USER_CHARGES
@<TRIPOS>ATOM
1      O1     -0.0164    1.3549    0.0095 O.3      1 ZINC000003963016   -0.5000
2      C2      0.0021   -0.0041    0.0020 C.ar     1 ZINC000003963016    0.1000
3      C3      0.0058   -0.6913   -1.2038 C.ar     1 ZINC000003963016   -0.1200
4      C4      0.0245   -2.0737   -1.2162 C.ar     1 ZINC000003963016   -0.1100
5      C5      0.0401   -2.7781   -0.0295 C.ar     1 ZINC000003963016   -0.0800
6      C6      0.0369   -2.0956    1.1860 C.ar     1 ZINC000003963016   -0.0300
7      C7      0.0541   -2.8503    2.4629 C.ar     1 ZINC000003963016    0.3800
8      N8      0.0453   -2.1812    3.6057 N.ar     1 ZINC000003963016   -0.4900
9      C9      0.0602   -2.8283    4.7667 C.ar     1 ZINC000003963016    0.1700
10     C10     0.0854   -4.2285    4.7766 C.ar     1 ZINC000003963016   -0.0400
11     O11     0.0971   -4.6523    6.0572 O.3      1 ZINC000003963016   -0.1700
12     C12     0.0812   -3.6160    6.9225 C.ar     1 ZINC000003963016    0.3100
13     C13     0.0574   -2.4235    6.1815 C.ar     1 ZINC000003963016   -0.1800
14     C14     0.0380   -1.1993    6.8453 C.ar     1 ZINC000003963016    0.0100
15     C15     0.0429   -1.2071    8.2294 C.ar     1 ZINC000003963016   -0.2000
16     C16     0.0668   -2.4194    8.8983 C.ar     1 ZINC000003963016    0.1700
17     N17     0.0845   -3.5638    8.2479 N.ar     1 ZINC000003963016   -0.4800
18     C18     0.0938   -4.8947    3.5441 C.ar     1 ZINC000003963016    0.4000
19     N19     0.1186   -6.2801    3.4917 N.3      1 ZINC000003963016   -0.4700
20     C20     1.2732   -6.8146    4.2282 C.3      1 ZINC000003963016    0.0200
21     C21     1.2288   -8.3446    4.1953 C.3      1 ZINC000003963016    0.0700
22     O22     1.2023   -8.7866    2.8355 O.3      1 ZINC000003963016   -0.3800
23     C23     0.0903   -8.2853    2.0888 C.3      1 ZINC000003963016    0.0600
24     C24     0.1232   -6.7547    2.1003 C.3      1 ZINC000003963016    0.0300
25     N25     0.0724   -4.1775    2.4275 N.ar     1 ZINC000003963016   -0.5200
26     C26     0.0229   -0.7030    1.1980 C.ar     1 ZINC000003963016   -0.0900
27     H27     0.8616    1.7602    0.0033 H        1 ZINC000003963016    0.3900
28     H28    -0.0063   -0.1446   -2.1351 H        1 ZINC000003963016    0.1300
29     H29     0.0266   -2.6037   -2.1572 H        1 ZINC000003963016    0.1400
30     H30     0.0543   -3.8580   -0.0426 H        1 ZINC000003963016    0.1400
31     H31     0.0199   -0.2699    6.2955 H        1 ZINC000003963016    0.1500
32     H32     0.0286   -0.2788    8.7812 H        1 ZINC000003963016    0.1600
33     H33     0.0706   -2.4261    9.9783 H        1 ZINC000003963016    0.1800
34     H34     2.1951   -6.4671    3.7617 H        1 ZINC000003963016    0.0600
35     H35     1.2360   -6.4715    5.2621 H        1 ZINC000003963016    0.1000
36     H36     2.1132   -8.7451    4.6910 H        1 ZINC000003963016    0.1100
37     H37     0.3332   -8.6938    4.7092 H        1 ZINC000003963016    0.0700
38     H38     0.1512   -8.6429    1.0609 H        1 ZINC000003963016    0.1100
39     H39    -0.8384   -8.6328    2.5413 H        1 ZINC000003963016    0.0600
40     H40    -0.7536   -6.3679    1.5809 H        1 ZINC000003963016    0.1000
41     H41     1.0266   -6.4063    1.5998 H        1 ZINC000003963016    0.0700
42     H42     0.0204   -0.1696    2.1370 H        1 ZINC000003963016    0.1400
@<TRIPOS>BOND
1     1     2     1
2     1     27    1
3     2     26    ar
4     2     3     ar
5     3     4     ar
6     3     28    1
7     4     5     ar
8     4     29    1
9     5     6     ar
10    5     30    1
11    6     7     1
12    6     26    ar
13    7     25    ar
14    7     8     ar
15    8     9     ar
16    9     13    1
17    9     10    ar
18    10    11    1
19    10    18    ar
20    11    12    1
21    12    17    ar
22    12    13    ar
23    13    14    ar
24    14    15    ar
25    14    31    1
26    15    16    ar
27    15    32    1
28    16    17    ar
29    16    33    1
30    18    19    1
31    18    25    ar
32    19    24    1
33    19    20    1
34    20    21    1
35    20    34    1
36    20    35    1
37    21    22    1
38    21    36    1
39    21    37    1
40    22    23    1
41    23    24    1
42    23    38    1
43    23    39    1
44    24    40    1
45    24    41    1
46    26    42    1
@<TRIPOS>SUBSTRUCTURE
1   ZINC000003963016 1     RESIDUE    1   A     ZIN   1


@<TRIPOS>MOLECULE
CC1=C(SC(=N1)NC(=O)C)C2=CC(=C(C=C2)Cl)S(=O)(=O)NCCO
  40   41    0    0    0
SMALL
USER_CHARGES
NO_NAME
@<TRIPOS>ATOM
    1 C1       -0.5358     1.5907    -0.1016 C.3    1 <0>      -0.1700
    2 C2       -0.4706     0.1029    -0.3326 C.2    1 <0>       0.5000
    3 O3        0.2698    -0.3471    -1.1812 O.2    1 <0>      -0.4700
    4 N4       -1.2351    -0.7275     0.4039 N.am   1 <0>      -0.6400
    5 C5       -1.1750    -2.0982     0.1911 C.2    1 <0>       0.2700
    6 N6       -0.4148    -2.6798    -0.6849 N.2    1 <0>      -0.4700
    7 C7       -0.4798    -3.9921    -0.7577 C.2    1 <0>       0.1300
    8 C8        0.3455    -4.7990    -1.7265 C.3    1 <0>      -0.0900
    9 C9       -1.3475    -4.5538     0.1093 C.2    1 <0>      -0.2300
   10 C10      -1.6242    -5.9989     0.2491 C.ar   1 <0>      -0.0100
   11 C11      -0.5696    -6.9089     0.3370 C.ar   1 <0>      -0.0300
   12 C12      -0.8343    -8.2566     0.4674 C.ar   1 <0>      -0.1200
   13 C13      -2.1428    -8.7070     0.5111 C.ar   1 <0>       0.0500
   14 Cl14     -2.4678   -10.4043     0.6753 Cl     1 <0>      -0.0400
   15 C15      -3.1934    -7.8088     0.4247 C.ar   1 <0>      -0.6600
   16 S16      -4.8553    -8.3916     0.4818 S.o2   1 <0>       2.6900
   17 O17      -4.9333    -9.2733     1.5934 O.2    1 <0>      -0.9400
   18 O18      -5.6866    -7.2483     0.3368 O.2    1 <0>      -0.9500
   19 N19      -5.0961    -9.3192    -0.8687 N.am   1 <0>      -1.1100
   20 C20      -4.3508   -10.5685    -1.0417 C.3    1 <0>       0.1100
   21 C21      -5.0058   -11.4049    -2.1427 C.3    1 <0>       0.0700
   22 O22      -4.8920   -10.7208    -3.3921 O.3    1 <0>      -0.5700
   23 C23      -2.9415    -6.4586     0.2995 C.ar   1 <0>       0.0000
   24 S24      -2.0867    -3.2610     1.0507 S.3    1 <0>       0.1500
   25 H25       0.1472     2.0948    -0.7852 H      1 <0>       0.1000
   26 H26      -1.5524     1.9417    -0.2790 H      1 <0>       0.0900
   27 H27      -0.2495     1.8116     0.9267 H      1 <0>       0.0900
   28 H28      -1.8273    -0.3676     1.0826 H      1 <0>       0.4200
   29 H29       1.2506    -5.1484    -1.2297 H      1 <0>       0.0800
   30 H30      -0.2335    -5.6557    -2.0714 H      1 <0>       0.0800
   31 H31       0.6164    -4.1765    -2.5793 H      1 <0>       0.0800
   32 H32       0.4515    -6.5589     0.3027 H      1 <0>       0.1500
   33 H33      -0.0191    -8.9618     0.5352 H      1 <0>       0.1500
   34 H34      -5.7306    -9.0354    -1.5452 H      1 <0>       0.4300
   35 H35      -3.3218   -10.3421    -1.3210 H      1 <0>       0.0800
   36 H36      -4.3585   -11.1287    -0.1066 H      1 <0>       0.1000
   37 H37      -4.5062   -12.3713    -2.2108 H      1 <0>       0.0600
   38 H38      -6.0590   -11.5563    -1.9060 H      1 <0>       0.0600
   39 H39      -5.2867   -11.1942    -4.1372 H      1 <0>       0.3800
   40 H40      -3.7617    -5.7591     0.2323 H      1 <0>       0.1500
@<TRIPOS>BOND
   1    1    2 1
   2    1   25 1
   3    1   26 1
   4    1   27 1
   5    2    3 2
   6    2    4 am
   7    4    5 1
   8    4   28 1
   9    5   24 1
  10    5    6 2
  11    6    7 1
  12    7    8 1
  13    7    9 2
  14    8   29 1
  15    8   30 1
  16    8   31 1
  17    9   10 1
  18    9   24 1
  19   10   23 ar
  20   10   11 ar
  21   11   12 ar
  22   11   32 1
  23   12   13 ar
  24   12   33 1
  25   13   14 1
  26   13   15 ar
  27   15   16 1
  28   15   23 ar
  29   16   17 2
  30   16   18 2
  31   16   19 am
  32   19   20 1
  33   19   34 1
  34   20   21 1
  35   20   35 1
  36   20   36 1
  37   21   22 1
  38   21   37 1
  39   21   38 1
  40   22   39 1
  41   23   40 1


@<TRIPOS>MOLECULE
CN(C)C1CCN(CC1)C(=O)C2=CC=C(C=C2)NC(=O)NC3=CC=C(C=C3)C4=NC(=NC(=N4)N5CCOCC5)N6CCOCC6
87    92    1     0     0
SMALL
USER_CHARGES
@<TRIPOS>ATOM
1      C1     -9.9371   -1.1856    4.9420 C.3      1 ZINC000049757175   -0.0500
2      N2     -9.3150   -2.4906    4.6810 N.4      1 ZINC000049757175   -0.3900
3      H3     -8.4251   -2.5396    5.1540 H        1 ZINC000049757175    0.4300
4      C4    -10.1926   -3.5593    5.1767 C.3      1 ZINC000049757175   -0.0500
5      C5     -9.1110   -2.6555    3.2356 C.3      1 ZINC000049757175    0.0200
6      C6     -8.1981   -1.5410    2.7191 C.3      1 ZINC000049757175   -0.1600
7      C7     -8.0155   -1.6960    1.2060 C.3      1 ZINC000049757175    0.1200
8      N8     -7.5289   -3.0535    0.9250 N.am     1 ZINC000049757175   -0.6200
9      C9     -6.4113   -3.2453    0.1965 C.2      1 ZINC000049757175    0.5700
10     O10    -5.8384   -2.2945   -0.2997 O.2      1 ZINC000049757175   -0.5100
11     C11    -5.8828   -4.6093    0.0010 C.ar     1 ZINC000049757175   -0.1600
12     C12    -6.7459   -5.6512   -0.3495 C.ar     1 ZINC000049757175   -0.0800
13     C13    -6.2496   -6.9222   -0.5315 C.ar     1 ZINC000049757175   -0.1200
14     C14    -4.8905   -7.1703   -0.3670 C.ar     1 ZINC000049757175    0.1900
15     N15    -4.3911   -8.4587   -0.5526 N.am     1 ZINC000049757175   -0.6800
16     C16    -4.9221   -9.2573   -1.4995 C.2      1 ZINC000049757175    0.7100
17     O17    -5.8888   -8.8855   -2.1362 O.2      1 ZINC000049757175   -0.5500
18     N18    -4.3814  -10.4681   -1.7407 N.am     1 ZINC000049757175   -0.6800
19     C19    -4.8614  -11.2499   -2.7933 C.ar     1 ZINC000049757175    0.1900
20     C20    -5.3017  -10.6426   -3.9641 C.ar     1 ZINC000049757175   -0.1300
21     C21    -5.7758  -11.4118   -5.0043 C.ar     1 ZINC000049757175   -0.0400
22     C22    -5.8133  -12.8011   -4.8822 C.ar     1 ZINC000049757175   -0.0700
23     C23    -6.3221  -13.6305   -5.9991 C.ar     1 ZINC000049757175    0.4600
24     N24    -6.7387  -13.0513   -7.1221 N.ar     1 ZINC000049757175   -0.6000
25     C25    -7.1952  -13.7963   -8.1240 C.ar     1 ZINC000049757175    0.5600
26     N26    -7.6270  -13.1956   -9.2893 N.3      1 ZINC000049757175   -0.4500
27     C27    -6.8991  -13.7205  -10.4537 C.3      1 ZINC000049757175    0.0300
28     C28    -7.4492  -13.0728  -11.7271 C.3      1 ZINC000049757175    0.0600
29     O29    -7.3419  -11.6509  -11.6174 O.3      1 ZINC000049757175   -0.3800
30     C30    -8.0397  -11.1058  -10.4944 C.3      1 ZINC000049757175    0.0600
31     C31    -7.4956  -11.7336   -9.2084 C.3      1 ZINC000049757175    0.0300
32     N32    -7.2354  -15.1194   -8.0041 N.ar     1 ZINC000049757175   -0.5800
33     C33    -6.8193  -15.6987   -6.8825 C.ar     1 ZINC000049757175    0.5600
34     N34    -6.8615  -17.0728   -6.7588 N.3      1 ZINC000049757175   -0.4500
35     C35    -8.2226  -17.5805   -6.9843 C.3      1 ZINC000049757175    0.0300
36     C36    -8.2123  -19.1090   -6.8971 C.3      1 ZINC000049757175    0.0600
37     O37    -7.6902  -19.5054   -5.6261 O.3      1 ZINC000049757175   -0.3800
38     C38    -6.3657  -19.0286   -5.3736 C.3      1 ZINC000049757175    0.0600
39     C39    -6.3573  -17.4993   -5.4454 C.3      1 ZINC000049757175    0.0300
40     N40    -6.3575  -14.9554   -5.8818 N.ar     1 ZINC000049757175   -0.6000
41     C41    -5.3705  -13.4080   -3.7065 C.ar     1 ZINC000049757175   -0.0400
42     C42    -4.8928  -12.6346   -2.6712 C.ar     1 ZINC000049757175   -0.1500
43     C43    -4.0285   -6.1353   -0.0181 C.ar     1 ZINC000049757175   -0.1500
44     C44    -4.5174   -4.8609    0.1603 C.ar     1 ZINC000049757175   -0.0400
45     C45    -8.2834   -4.1981    1.4537 C.3      1 ZINC000049757175    0.1000
46     C46    -8.4629   -4.0150    2.9640 C.3      1 ZINC000049757175   -0.1600
47     H47   -10.0885   -1.0633    6.0144 H        1 ZINC000049757175    0.1300
48     H48    -9.2859   -0.3927    4.5741 H        1 ZINC000049757175    0.1300
49     H49   -10.8984   -1.1327    4.4309 H        1 ZINC000049757175    0.1200
50     H50   -11.1539   -3.5063    4.6657 H        1 ZINC000049757175    0.1200
51     H51    -9.7310   -4.5276    4.9830 H        1 ZINC000049757175    0.1300
52     H52   -10.3440   -3.4369    6.2492 H        1 ZINC000049757175    0.1300
53     H53   -10.0724   -2.6030    2.7248 H        1 ZINC000049757175    0.1400
54     H54    -8.6493   -0.5723    2.9338 H        1 ZINC000049757175    0.1000
55     H55    -7.2279   -1.6081    3.2114 H        1 ZINC000049757175    0.0900
56     H56    -8.9707   -1.5392    0.7048 H        1 ZINC000049757175    0.0800
57     H57    -7.2890   -0.9661    0.8490 H        1 ZINC000049757175    0.1100
58     H58    -7.8011   -5.4594   -0.4770 H        1 ZINC000049757175    0.1300
59     H59    -6.9161   -7.7279   -0.8020 H        1 ZINC000049757175    0.1500
60     H60    -3.6615   -8.7803   -0.0001 H        1 ZINC000049757175    0.4100
61     H61    -3.6589  -10.7964   -1.1830 H        1 ZINC000049757175    0.4100
62     H62    -5.2725   -9.5671   -4.0581 H        1 ZINC000049757175    0.1400
63     H63    -6.1184  -10.9397   -5.9132 H        1 ZINC000049757175    0.1400
64     H64    -5.8388  -13.4873  -10.3555 H        1 ZINC000049757175    0.0600
65     H65    -7.0311  -14.8011  -10.5087 H        1 ZINC000049757175    0.1100
66     H66    -6.8746  -13.4159  -12.5875 H        1 ZINC000049757175    0.1100
67     H67    -8.4957  -13.3501  -11.8536 H        1 ZINC000049757175    0.0700
68     H68    -7.8922  -10.0263  -10.4631 H        1 ZINC000049757175    0.1100
69     H69    -9.1034  -11.3259  -10.5850 H        1 ZINC000049757175    0.0600
70     H70    -8.0630  -11.3638   -8.3544 H        1 ZINC000049757175    0.1000
71     H71    -6.4449  -11.4686   -9.0904 H        1 ZINC000049757175    0.0700
72     H72    -8.8921  -17.1771   -6.2246 H        1 ZINC000049757175    0.0600
73     H73    -8.5661  -17.2747   -7.9725 H        1 ZINC000049757175    0.1100
74     H74    -9.2288  -19.4867   -7.0069 H        1 ZINC000049757175    0.1100
75     H75    -7.5849  -19.5146   -7.6908 H        1 ZINC000049757175    0.0700
76     H76    -6.0468  -19.3481   -4.3815 H        1 ZINC000049757175    0.1100
77     H77    -5.6847  -19.4319   -6.1230 H        1 ZINC000049757175    0.0600
78     H78    -5.3392  -17.1342   -5.3102 H        1 ZINC000049757175    0.1000
79     H79    -6.9970  -17.0946   -4.6611 H        1 ZINC000049757175    0.0700
80     H80    -5.3985  -14.4833   -3.6096 H        1 ZINC000049757175    0.1400
81     H81    -4.5499  -13.1039   -1.7609 H        1 ZINC000049757175    0.1400
82     H82    -2.9741   -6.3313    0.1092 H        1 ZINC000049757175    0.1400
83     H83    -3.8477   -4.0579    0.4307 H        1 ZINC000049757175    0.1400
84     H84    -9.2603   -4.2453    0.9726 H        1 ZINC000049757175    0.0800
85     H85    -7.7335   -5.1191    1.2600 H        1 ZINC000049757175    0.1200
86     H86    -7.4902   -4.0588    3.4539 H        1 ZINC000049757175    0.0900
87     H87    -9.1027   -4.8072    3.3530 H        1 ZINC000049757175    0.1000
@<TRIPOS>BOND
1     1     2     1
2     1     47    1
3     1     48    1
4     1     49    1
5     2     3     1
6     2     4     1
7     2     5     1
8     4     50    1
9     4     51    1
10    4     52    1
11    5     46    1
12    5     6     1
13    5     53    1
14    6     7     1
15    6     54    1
16    6     55    1
17    7     8     1
18    7     56    1
19    7     57    1
20    8     9     am
21    8     45    1
22    9     10    2
23    9     11    1
24    11    44    ar
25    11    12    ar
26    12    13    ar
27    12    58    1
28    13    14    ar
29    13    59    1
30    14    15    1
31    14    43    ar
32    15    16    am
33    15    60    1
34    16    17    2
35    16    18    am
36    18    19    1
37    18    61    1
38    19    42    ar
39    19    20    ar
40    20    21    ar
41    20    62    1
42    21    22    ar
43    21    63    1
44    22    23    1
45    22    41    ar
46    23    40    ar
47    23    24    ar
48    24    25    ar
49    25    26    1
50    25    32    ar
51    26    31    1
52    26    27    1
53    27    28    1
54    27    64    1
55    27    65    1
56    28    29    1
57    28    66    1
58    28    67    1
59    29    30    1
60    30    31    1
61    30    68    1
62    30    69    1
63    31    70    1
64    31    71    1
65    32    33    ar
66    33    34    1
67    33    40    ar
68    34    39    1
69    34    35    1
70    35    36    1
71    35    72    1
72    35    73    1
73    36    37    1
74    36    74    1
75    36    75    1
76    37    38    1
77    38    39    1
78    38    76    1
79    38    77    1
80    39    78    1
81    39    79    1
82    41    42    ar
83    41    80    1
84    42    81    1
85    43    44    ar
86    43    82    1
87    44    83    1
88    45    46    1
89    45    84    1
90    45    85    1
91    46    86    1
92    46    87    1
@<TRIPOS>SUBSTRUCTURE
1   ZINC000049757175 1     RESIDUE    1   A     ZIN   1


@<TRIPOS>MOLECULE
CC1CC2=CC3=C(C(=C2C4=C(C(=C(C=C4CC1C)OC)OC)OC)OC)OCO3
57    60    1     0     0
SMALL
USER_CHARGES
@<TRIPOS>ATOM
1      C1     -0.1968    1.4401   -0.2057 C.3      1 ZINC000001531882    0.0200
2      O2     -0.1101    0.0151   -0.1418 O.3      1 ZINC000001531882   -0.3000
3      C3      0.5592   -0.6084   -1.1482 C.ar     1 ZINC000001531882    0.1300
4      C4      1.1259    0.1381   -2.1733 C.ar     1 ZINC000001531882   -0.2000
5      C5      1.7947   -0.4954   -3.1947 C.ar     1 ZINC000001531882   -0.0100
6      C6      1.8993   -1.8849   -3.2286 C.ar     1 ZINC000001531882   -0.0900
7      C7      1.3449   -2.6356   -2.1844 C.ar     1 ZINC000001531882    0.1500
8      O8      1.4616   -3.9903   -2.1826 O.3      1 ZINC000001531882   -0.3100
9      C9      0.3803   -4.7354   -2.7462 C.3      1 ZINC000001531882    0.0400
10     C10     0.6818   -1.9938   -1.1490 C.ar     1 ZINC000001531882    0.0300
11     O11     0.1399   -2.7231   -0.1357 O.3      1 ZINC000001531882   -0.3200
12     C12     0.9727   -2.9786    0.9970 C.3      1 ZINC000001531882    0.0400
13     C13     2.5457   -2.5679   -4.3658 C.ar     1 ZINC000001531882   -0.0400
14     C14     2.0736   -2.3970   -5.6658 C.ar     1 ZINC000001531882   -0.0400
15     C15     2.7047   -2.9961   -6.7310 C.ar     1 ZINC000001531882   -0.1100
16     C16     3.8079   -3.8116   -6.5144 C.ar     1 ZINC000001531882    0.0500
17     O17     4.5936   -4.5152   -7.3809 O.3      1 ZINC000001531882   -0.3000
18     C18     5.7887   -4.8357   -6.6450 C.3      1 ZINC000001531882    0.2100
19     O19     5.3505   -4.8601   -5.2738 O.3      1 ZINC000001531882   -0.3000
20     C20     4.2753   -4.0180   -5.2195 C.ar     1 ZINC000001531882    0.0000
21     C21     3.6532   -3.3963   -4.1467 C.ar     1 ZINC000001531882    0.1400
22     O22     4.1186   -3.5908   -2.8840 O.3      1 ZINC000001531882   -0.3100
23     C23     5.1155   -2.6818   -2.4128 C.3      1 ZINC000001531882    0.0400
24     C24     0.8189   -1.5743   -5.8738 C.3      1 ZINC000001531882   -0.0800
25     C25     1.1974   -0.1966   -6.4166 C.3      1 ZINC000001531882   -0.0800
26     H26     2.1246   -0.2767   -6.9841 H        1 ZINC000001531882    0.0700
27     C27     0.0842    0.3049   -7.3387 C.3      1 ZINC000001531882   -0.1500
28     C28     1.3906    0.7987   -5.2763 C.3      1 ZINC000001531882   -0.0800
29     H29     1.7000    1.7597   -5.6874 H        1 ZINC000001531882    0.0800
30     C30     0.0663    0.9732   -4.5302 C.3      1 ZINC000001531882   -0.1600
31     C31     2.4562    0.3027   -4.2993 C.3      1 ZINC000001531882   -0.0800
32     H32     0.8066    1.8658   -0.1979 H        1 ZINC000001531882    0.0600
33     H33    -0.7084    1.7322   -1.1227 H        1 ZINC000001531882    0.0600
34     H34    -0.7547    1.8090    0.6550 H        1 ZINC000001531882    0.1000
35     H35     1.0411    1.2147   -2.1686 H        1 ZINC000001531882    0.1400
36     H36     0.3000   -4.5112   -3.8099 H        1 ZINC000001531882    0.0400
37     H37     0.5648   -5.8013   -2.6124 H        1 ZINC000001531882    0.0900
38     H38    -0.5489   -4.4620   -2.2462 H        1 ZINC000001531882    0.0500
39     H39     1.3378   -2.0340    1.4001 H        1 ZINC000001531882    0.0400
40     H40     0.3968   -3.5012    1.7609 H        1 ZINC000001531882    0.0900
41     H41     1.8187   -3.5957    0.6943 H        1 ZINC000001531882    0.0500
42     H42     2.3424   -2.8328   -7.7352 H        1 ZINC000001531882    0.1400
43     H43     6.1711   -5.8122   -6.9422 H        1 ZINC000001531882    0.1300
44     H44     6.5464   -4.0660   -6.7913 H        1 ZINC000001531882    0.0800
45     H45     4.7170   -1.6673   -2.4250 H        1 ZINC000001531882    0.0500
46     H46     5.3984   -2.9488   -1.3945 H        1 ZINC000001531882    0.1000
47     H47     5.9913   -2.7360   -3.0593 H        1 ZINC000001531882    0.0400
48     H48     0.1673   -2.0793   -6.5868 H        1 ZINC000001531882    0.0800
49     H49     0.2978   -1.4597   -4.9232 H        1 ZINC000001531882    0.0900
50     H50    -0.8477    0.3764   -6.7777 H        1 ZINC000001531882    0.0600
51     H51     0.3501    1.2875   -7.7282 H        1 ZINC000001531882    0.0600
52     H52    -0.0430   -0.3921   -8.1671 H        1 ZINC000001531882    0.0600
53     H53    -0.2526    0.0122   -4.1265 H        1 ZINC000001531882    0.0600
54     H54     0.1997    1.6837   -3.7144 H        1 ZINC000001531882    0.0600
55     H55    -0.6917    1.3479   -5.2181 H        1 ZINC000001531882    0.0600
56     H56     2.9791    1.1562   -3.8678 H        1 ZINC000001531882    0.0800
57     H57     3.1683   -0.3303   -4.8287 H        1 ZINC000001531882    0.0800
@<TRIPOS>BOND
1     1     2     1
2     1     32    1
3     1     33    1
4     1     34    1
5     2     3     1
6     3     10    ar
7     3     4     ar
8     4     5     ar
9     4     35    1
10    5     31    1
11    5     6     ar
12    6     7     ar
13    6     13    1
14    7     8     1
15    7     10    ar
16    8     9     1
17    9     36    1
18    9     37    1
19    9     38    1
20    10    11    1
21    11    12    1
22    12    39    1
23    12    40    1
24    12    41    1
25    13    21    ar
26    13    14    ar
27    14    15    ar
28    14    24    1
29    15    16    ar
30    15    42    1
31    16    20    ar
32    16    17    1
33    17    18    1
34    18    19    1
35    18    43    1
36    18    44    1
37    19    20    1
38    20    21    ar
39    21    22    1
40    22    23    1
41    23    45    1
42    23    46    1
43    23    47    1
44    24    25    1
45    24    48    1
46    24    49    1
47    25    26    1
48    25    27    1
49    25    28    1
50    27    50    1
51    27    51    1
52    27    52    1
53    28    29    1
54    28    30    1
55    28    31    1
56    30    53    1
57    30    54    1
58    30    55    1
59    31    56    1
60    31    57    1
@<TRIPOS>SUBSTRUCTURE
1   ZINC000001531882 1     RESIDUE    1   A     ZIN   1


@<TRIPOS>MOLECULE
COC1=C(C=C(C=C1)C=CC2=CC(=C(C(=C2)OC)OC)OC)O
  43   44    0    0    0
SMALL
USER_CHARGES
NO_NAME
@<TRIPOS>ATOM
    1 C1       -0.0173     1.4248     0.0099 C.3    1 <0>       0.0200
    2 O2        0.0021    -0.0041     0.0020 O.3    1 <0>      -0.3100
    3 C3        0.6060    -0.6073    -1.0561 C.ar   1 <0>       0.1100
    4 C4        1.1721     0.1631    -2.0608 C.ar   1 <0>      -0.1900
    5 C5        1.7861    -0.4435    -3.1367 C.ar   1 <0>      -0.0800
    6 C6        1.8392    -1.8375    -3.2157 C.ar   1 <0>      -0.0800
    7 C7        2.4950    -2.4879    -4.3637 C.2    1 <0>      -0.0800
    8 C8        3.0428    -1.7407    -5.3360 C.2    1 <0>      -0.1200
    9 C9        3.6985    -2.3910    -6.4840 C.ar   1 <0>       0.0200
   10 C10       3.7463    -3.7854    -6.5656 C.ar   1 <0>      -0.2300
   11 C11       4.3623    -4.3928    -7.6449 C.ar   1 <0>       0.1500
   12 O12       4.4088    -5.7496    -7.7252 O.3    1 <0>      -0.3000
   13 C13       3.8017    -6.4838    -6.6602 C.3    1 <0>       0.0200
   14 C14       4.9340    -3.6172    -8.6487 C.ar   1 <0>       0.0300
   15 O15       5.5391    -4.2177    -9.7090 O.3    1 <0>      -0.3100
   16 C16       4.7216    -4.5051   -10.8452 C.3    1 <0>       0.0400
   17 C17       4.8877    -2.2287    -8.5708 C.ar   1 <0>       0.1500
   18 O18       5.4469    -1.4742    -9.5545 O.3    1 <0>      -0.3000
   19 C19       5.3630    -0.0549    -9.4105 C.3    1 <0>       0.0200
   20 C20       4.2690    -1.6150    -7.4966 C.ar   1 <0>      -0.2200
   21 C21       1.2688    -2.6136    -2.2024 C.ar   1 <0>      -0.0900
   22 C22       0.6597    -1.9981    -1.1254 C.ar   1 <0>       0.0800
   23 O23       0.1038    -2.7499    -0.1378 O.3    1 <0>      -0.4900
   24 H24       1.0053     1.8021     0.0021 H      1 <0>       0.0600
   25 H25      -0.5445     1.7859    -0.8732 H      1 <0>       0.0600
   26 H26      -0.5275     1.7763     0.9067 H      1 <0>       0.1000
   27 H27       1.1317     1.2407    -2.0008 H      1 <0>       0.1400
   28 H28       2.2255     0.1589    -3.9181 H      1 <0>       0.1300
   29 H29       2.5352    -3.5655    -4.4233 H      1 <0>       0.1200
   30 H30       3.0026    -0.6631    -5.2764 H      1 <0>       0.1300
   31 H31       3.3031    -4.3879    -5.7866 H      1 <0>       0.1400
   32 H32       4.2894    -6.2292    -5.7192 H      1 <0>       0.0600
   33 H33       2.7433    -6.2300    -6.6011 H      1 <0>       0.0600
   34 H34       3.9093    -7.5521    -6.8478 H      1 <0>       0.1000
   35 H35       3.9134    -5.1748   -10.5513 H      1 <0>       0.0400
   36 H36       4.3015    -3.5777   -11.2345 H      1 <0>       0.0400
   37 H37       5.3262    -4.9820   -11.6166 H      1 <0>       0.0900
   38 H38       5.8466     0.4258   -10.2608 H      1 <0>       0.1000
   39 H39       4.3158     0.2450    -9.3708 H      1 <0>       0.0600
   40 H40       5.8626     0.2470    -8.4900 H      1 <0>       0.0600
   41 H41       4.2331    -0.5372    -7.4369 H      1 <0>       0.1400
   42 H42       1.3074    -3.6914    -2.2592 H      1 <0>       0.1400
   43 H43       0.7124    -2.9658     0.5820 H      1 <0>       0.3900
@<TRIPOS>BOND
   1    1    2 1
   2    1   24 1
   3    1   25 1
   4    1   26 1
   5    2    3 1
   6    3   22 ar
   7    3    4 ar
   8    4    5 ar
   9    4   27 1
  10    5    6 ar
  11    5   28 1
  12    6    7 1
  13    6   21 ar
  14    7    8 2
  15    7   29 1
  16    8    9 1
  17    8   30 1
  18    9   20 ar
  19    9   10 ar
  20   10   11 ar
  21   10   31 1
  22   11   12 1
  23   11   14 ar
  24   12   13 1
  25   13   32 1
  26   13   33 1
  27   13   34 1
  28   14   15 1
  29   14   17 ar
  30   15   16 1
  31   16   35 1
  32   16   36 1
  33   16   37 1
  34   17   18 1
  35   17   20 ar
  36   18   19 1
  37   19   38 1
  38   19   39 1
  39   19   40 1
  40   20   41 1
  41   21   22 ar
  42   21   42 1
  43   22   23 1
  44   23   43 1


@<TRIPOS>MOLECULE
CC(=O)OC1CC2(C(CC3C2(O3)C4(C1C5(C=CC(=O)C(C5=C(C4=O)O)(C)C)C)C)C6=COC=C6)C
67    72    1     0     0
SMALL
USER_CHARGES
@<TRIPOS>ATOM
1      C1     -0.1238    1.1518    0.2430 C.3      1 ZINC000019795882   -0.1500
2      C2     -0.0231   -0.3483    0.1398 C.2      1 ZINC000019795882    0.4600
3      O3      1.0614   -0.8803    0.1093 O.2      1 ZINC000019795882   -0.5000
4      O4     -1.1380   -1.0935    0.0817 O.3      1 ZINC000019795882   -0.3500
5      C5     -0.9656   -2.5285   -0.0166 C.3      1 ZINC000019795882    0.0900
6      H6     -0.0172   -2.7661    0.5054 H        1 ZINC000019795882    0.1000
7      C7     -0.7731   -2.9166   -1.4819 C.3      1 ZINC000019795882   -0.1300
8      C8     -0.5246   -4.4105   -1.5951 C.3      1 ZINC000019795882   -0.0300
9      C9     -1.5158   -5.0733   -2.5553 C.3      1 ZINC000019795882   -0.1600
10     C10     0.9177   -4.7538   -2.0417 C.3      1 ZINC000019795882   -0.0100
11     H11     1.6440   -4.1286   -1.5330 H        1 ZINC000019795882    0.1000
12     C12     1.0501   -4.6485   -3.5392 C.2      1 ZINC000019795882   -0.1700
13     C13     0.3562   -5.3462   -4.4563 C.2      1 ZINC000019795882   -0.0400
14     O14     0.7644   -4.9650   -5.6777 O.3      1 ZINC000019795882   -0.1700
15     C15     1.7172   -4.0260   -5.5585 C.2      1 ZINC000019795882   -0.0400
16     C16     1.9231   -3.7931   -4.2498 C.2      1 ZINC000019795882   -0.2100
17     C17     1.0329   -6.2379   -1.5816 C.3      1 ZINC000019795882   -0.1200
18     C18     0.3127   -6.2362   -0.2020 C.3      1 ZINC000019795882    0.0100
19     H19     0.0620   -7.1868    0.2541 H        1 ZINC000019795882    0.1500
20     O20     0.6215   -5.0900    0.6048 O.3      1 ZINC000019795882   -0.3200
21     C21    -0.5814   -5.0129   -0.1800 C.3      1 ZINC000019795882    0.0100
22     C22    -1.8647   -4.7825    0.6173 C.3      1 ZINC000019795882   -0.0500
23     C23    -1.6060   -5.3063    2.0525 C.3      1 ZINC000019795882   -0.1400
24     C24    -2.9946   -5.5698    0.0265 C.2      1 ZINC000019795882    0.3300
25     O25    -3.0004   -6.7930    0.1273 O.2      1 ZINC000019795882   -0.3900
26     C26    -4.1282   -4.8942   -0.6905 C.2      1 ZINC000019795882    0.3400
27     O27    -5.0687   -5.5507   -1.0853 O.2      1 ZINC000019795882   -0.3800
28     C28    -3.9926   -3.4032   -0.9039 C.3      1 ZINC000019795882   -0.1200
29     C29    -5.2457   -2.7622   -1.4688 C.3      1 ZINC000019795882   -0.0900
30     C30    -5.4272   -3.2196   -2.9320 C.3      1 ZINC000019795882   -0.1500
31     C31    -6.5171   -3.1208   -0.6996 C.3      1 ZINC000019795882   -0.1500
32     C32    -5.0889   -1.2533   -1.4811 C.2      1 ZINC000019795882    0.3900
33     O33    -5.6103   -0.5920   -2.3626 O.2      1 ZINC000019795882   -0.4500
34     C34    -4.3143   -0.6022   -0.4284 C.2      1 ZINC000019795882   -0.2300
35     C35    -3.5932   -1.3087    0.4290 C.2      1 ZINC000019795882   -0.0200
36     C36    -3.4762   -2.7983    0.3851 C.3      1 ZINC000019795882   -0.0200
37     C37    -4.3441   -3.3089    1.5459 C.3      1 ZINC000019795882   -0.1700
38     C38    -2.0748   -3.2745    0.6953 C.3      1 ZINC000019795882   -0.0600
39     H39    -1.9370   -3.0269    1.7715 H        1 ZINC000019795882    0.1000
40     H40     0.8772    1.5816    0.2786 H        1 ZINC000019795882    0.1000
41     H41    -0.6556    1.5408   -0.6253 H        1 ZINC000019795882    0.1000
42     H42    -0.6660    1.4179    1.1504 H        1 ZINC000019795882    0.1000
43     H43    -1.6465   -2.6315   -2.0616 H        1 ZINC000019795882    0.0800
44     H44     0.0922   -2.3726   -1.8791 H        1 ZINC000019795882    0.0900
45     H45    -1.4218   -4.6220   -3.5431 H        1 ZINC000019795882    0.0900
46     H46    -1.3002   -6.1397   -2.6211 H        1 ZINC000019795882    0.0700
47     H47    -2.5310   -4.9299   -2.1855 H        1 ZINC000019795882    0.0500
48     H48    -0.4005   -6.0876   -4.2462 H        1 ZINC000019795882    0.2000
49     H49     2.2283   -3.5376   -6.3750 H        1 ZINC000019795882    0.2000
50     H50     2.6259   -3.0925   -3.8235 H        1 ZINC000019795882    0.1500
51     H51     0.5377   -6.9075   -2.2769 H        1 ZINC000019795882    0.0900
52     H52     2.0799   -6.5132   -1.4568 H        1 ZINC000019795882    0.0900
53     H53    -0.7740   -4.7584    2.4948 H        1 ZINC000019795882    0.0800
54     H54    -2.5000   -5.1611    2.6590 H        1 ZINC000019795882    0.0700
55     H55    -1.3621   -6.3680    2.0134 H        1 ZINC000019795882    0.0800
56     H56    -3.1941   -3.2595   -1.6680 H        1 ZINC000019795882    0.1200
57     H57    -5.5226   -4.3050   -2.9642 H        1 ZINC000019795882    0.0700
58     H58    -6.3262   -2.7634   -3.3465 H        1 ZINC000019795882    0.0800
59     H59    -4.5609   -2.9135   -3.5185 H        1 ZINC000019795882    0.0600
60     H60    -6.4786   -2.6745    0.2941 H        1 ZINC000019795882    0.0700
61     H61    -7.3859   -2.7392   -1.2359 H        1 ZINC000019795882    0.0700
62     H62    -6.5933   -4.2043   -0.6086 H        1 ZINC000019795882    0.0800
63     H63    -4.3312    0.4787   -0.3429 H        1 ZINC000019795882    0.1400
64     H64    -3.0834   -0.7771    1.2212 H        1 ZINC000019795882    0.1400
65     H65    -5.3432   -2.8802    1.4685 H        1 ZINC000019795882    0.0800
66     H66    -4.4105   -4.3959    1.4991 H        1 ZINC000019795882    0.0600
67     H67    -3.8941   -3.0129    2.4935 H        1 ZINC000019795882    0.0800
@<TRIPOS>BOND
1     1     2     1
2     1     40    1
3     1     41    1
4     1     42    1
5     2     3     2
6     2     4     1
7     4     5     1
8     5     6     1
9     5     38    1
10    5     7     1
11    7     8     1
12    7     43    1
13    7     44    1
14    8     21    1
15    8     9     1
16    8     10    1
17    9     45    1
18    9     46    1
19    9     47    1
20    10    11    1
21    10    12    1
22    10    17    1
23    12    16    1
24    12    13    2
25    13    14    1
26    13    48    1
27    14    15    1
28    15    16    2
29    15    49    1
30    16    50    1
31    17    18    1
32    17    51    1
33    17    52    1
34    18    19    1
35    18    21    1
36    18    20    1
37    20    21    1
38    21    22    1
39    22    38    1
40    22    23    1
41    22    24    1
42    23    53    1
43    23    54    1
44    23    55    1
45    24    25    2
46    24    26    1
47    26    27    2
48    26    28    1
49    28    36    1
50    28    29    1
51    28    56    1
52    29    30    1
53    29    31    1
54    29    32    1
55    30    57    1
56    30    58    1
57    30    59    1
58    31    60    1
59    31    61    1
60    31    62    1
61    32    33    2
62    32    34    1
63    34    35    2
64    34    63    1
65    35    36    1
66    35    64    1
67    36    37    1
68    36    38    1
69    37    65    1
70    37    66    1
71    37    67    1
72    38    39    1
@<TRIPOS>SUBSTRUCTURE
1   ZINC000019795882 1     RESIDUE    1   A     ZIN   1


@<TRIPOS>MOLECULE
CC1=C2CC=C3C(C2=CC(=C1OC(=O)C)OC(=O)C)(CCC4(C3(CCC5(C4CC(CC5)(C)C(=O)O)C)C)C)C
82    86    1     0     0
SMALL
USER_CHARGES
@<TRIPOS>ATOM
1      C1     -2.6024  -10.9561   -7.7573 C.3      1 ZINC000004165414   -0.1400
2      C2     -1.2476  -10.3093   -7.8879 C.2      1 ZINC000004165414    0.4500
3      O3     -1.1626   -9.1248   -8.1112 O.2      1 ZINC000004165414   -0.4800
4      O4     -0.1351  -11.0490   -7.7561 O.3      1 ZINC000004165414   -0.2900
5      C5      1.0532  -10.3899   -7.8001 C.ar     1 ZINC000004165414    0.0900
6      C6      1.6437   -9.9437   -6.6314 C.ar     1 ZINC000004165414   -0.1100
7      C7      2.8524   -9.2618   -6.6644 C.ar     1 ZINC000004165414   -0.0300
8      C8      3.4684   -9.0196   -7.8711 C.ar     1 ZINC000004165414   -0.0600
9      C9      4.7522   -8.2452   -7.9565 C.3      1 ZINC000004165414   -0.0400
10     C10     5.1092   -7.5968   -6.6649 C.2      1 ZINC000004165414   -0.1800
11     C11     4.5390   -7.8183   -5.5179 C.2      1 ZINC000004165414   -0.0600
12     C12     3.4539   -8.8342   -5.3471 C.3      1 ZINC000004165414    0.0300
13     C13     4.0454  -10.1141   -4.7412 C.3      1 ZINC000004165414   -0.1400
14     C14     2.3366   -8.3488   -4.4324 C.3      1 ZINC000004165414   -0.1000
15     C15     2.8326   -7.5434   -3.2408 C.3      1 ZINC000004165414   -0.1100
16     C16     3.7423   -6.3933   -3.6878 C.3      1 ZINC000004165414   -0.0200
17     C17     2.9841   -5.6066   -4.7624 C.3      1 ZINC000004165414   -0.1500
18     C18     4.1013   -5.5031   -2.5111 C.3      1 ZINC000004165414   -0.0400
19     H19     4.5184   -6.2035   -1.7308 H        1 ZINC000004165414    0.0400
20     C20     2.8762   -4.9061   -1.8538 C.3      1 ZINC000004165414   -0.0800
21     C21     2.5372   -3.4554   -2.0852 C.3      1 ZINC000004165414   -0.1200
22     C22     2.0642   -2.8699   -0.7260 C.3      1 ZINC000004165414   -0.1300
23     C23     1.3406   -3.3496   -3.0136 C.2      1 ZINC000004165414    0.5100
24     O24     1.4250   -2.7067   -4.0461 O.co2    1 ZINC000004165414   -0.6900
25     O25     0.2952   -3.9075   -2.7267 O.co2    1 ZINC000004165414   -0.7000
26     C26     3.6368   -2.5502   -2.5957 C.3      1 ZINC000004165414   -0.0900
27     C27     4.6750   -3.2458   -3.4584 C.3      1 ZINC000004165414   -0.0900
28     C28     5.2007   -4.4985   -2.7656 C.3      1 ZINC000004165414   -0.0400
29     C29     5.7792   -4.0701   -1.3947 C.3      1 ZINC000004165414   -0.1400
30     C30     6.3712   -5.0629   -3.5665 C.3      1 ZINC000004165414   -0.1100
31     C31     5.9229   -5.8784   -4.7724 C.3      1 ZINC000004165414   -0.1100
32     C32     4.9969   -7.0042   -4.3219 C.3      1 ZINC000004165414   -0.0100
33     C33     5.7553   -7.8834   -3.3301 C.3      1 ZINC000004165414   -0.1400
34     C34     2.8943   -9.4845   -9.0455 C.ar     1 ZINC000004165414   -0.0700
35     C35     3.5693   -9.2490  -10.3733 C.3      1 ZINC000004165414   -0.1200
36     C36     1.6880  -10.1643   -9.0177 C.ar     1 ZINC000004165414    0.0800
37     O37     1.1268  -10.6043  -10.1754 O.3      1 ZINC000004165414   -0.2900
38     C38     1.4619  -11.8381  -10.5847 C.2      1 ZINC000004165414    0.4500
39     C39     0.8795  -12.3935  -11.8588 C.3      1 ZINC000004165414   -0.1400
40     O40     2.2306  -12.5034   -9.9316 O.2      1 ZINC000004165414   -0.4900
41     H41    -3.3790  -10.2035   -7.8937 H        1 ZINC000004165414    0.1100
42     H42    -2.7098  -11.7308   -8.5165 H        1 ZINC000004165414    0.1000
43     H43    -2.6983  -11.4019   -6.7672 H        1 ZINC000004165414    0.1000
44     H44     1.1512  -10.1256   -5.6877 H        1 ZINC000004165414    0.1400
45     H45     5.5562   -8.9190   -8.2448 H        1 ZINC000004165414    0.0900
46     H46     4.6525   -7.4633   -8.7102 H        1 ZINC000004165414    0.0900
47     H47     5.9157   -6.8792   -6.6977 H        1 ZINC000004165414    0.1200
48     H48     4.3134   -9.9331   -3.7003 H        1 ZINC000004165414    0.0700
49     H49     3.3077  -10.9149   -4.7925 H        1 ZINC000004165414    0.0600
50     H50     4.9351  -10.4033   -5.3005 H        1 ZINC000004165414    0.0600
51     H51     1.5995   -7.7837   -5.0065 H        1 ZINC000004165414    0.0700
52     H52     1.8057   -9.2365   -4.0411 H        1 ZINC000004165414    0.0600
53     H53     1.9587   -7.1148   -2.7301 H        1 ZINC000004165414    0.0700
54     H54     3.3383   -8.1806   -2.5231 H        1 ZINC000004165414    0.0600
55     H55     2.1524   -5.0727   -4.3028 H        1 ZINC000004165414    0.0800
56     H56     3.6589   -4.8918   -5.2333 H        1 ZINC000004165414    0.0500
57     H57     2.6018   -6.2958   -5.5154 H        1 ZINC000004165414    0.0500
58     H58     1.9887   -5.5097   -2.1267 H        1 ZINC000004165414    0.0700
59     H59     2.9731   -5.0655   -0.7577 H        1 ZINC000004165414    0.0300
60     H60     2.8643   -2.9637    0.0082 H        1 ZINC000004165414    0.0300
61     H61     1.8088   -1.8178   -0.8527 H        1 ZINC000004165414    0.0400
62     H62     1.1875   -3.4174   -0.3799 H        1 ZINC000004165414    0.0500
63     H63     3.1698   -1.7503   -3.2037 H        1 ZINC000004165414    0.0700
64     H64     4.1233   -2.0374   -1.7601 H        1 ZINC000004165414    0.0300
65     H65     4.2799   -3.4671   -4.4408 H        1 ZINC000004165414    0.0700
66     H66     5.5234   -2.5575   -3.6080 H        1 ZINC000004165414    0.0400
67     H67     4.9934   -3.6078   -0.7973 H        1 ZINC000004165414    0.0600
68     H68     6.1643   -4.9463   -0.8731 H        1 ZINC000004165414    0.0400
69     H69     6.5870   -3.3547   -1.5488 H        1 ZINC000004165414    0.0500
70     H70     6.9809   -4.2171   -3.9236 H        1 ZINC000004165414    0.0500
71     H71     7.0102   -5.6572   -2.9117 H        1 ZINC000004165414    0.0600
72     H72     5.4357   -5.2385   -5.5035 H        1 ZINC000004165414    0.0700
73     H73     6.8127   -6.3229   -5.2455 H        1 ZINC000004165414    0.0500
74     H74     6.2783   -7.2525   -2.6114 H        1 ZINC000004165414    0.0600
75     H75     5.0513   -8.5275   -2.8033 H        1 ZINC000004165414    0.0600
76     H76     6.4777   -8.4977   -3.8676 H        1 ZINC000004165414    0.0500
77     H77     4.2415  -10.0788  -10.5914 H        1 ZINC000004165414    0.0700
78     H78     2.8148   -9.1771  -11.1567 H        1 ZINC000004165414    0.0700
79     H79     4.1393   -8.3209  -10.3316 H        1 ZINC000004165414    0.0800
80     H80     1.5278  -12.1371  -12.6967 H        1 ZINC000004165414    0.1100
81     H81     0.7998  -13.4777  -11.7796 H        1 ZINC000004165414    0.1100
82     H82    -0.1105  -11.9674  -12.0217 H        1 ZINC000004165414    0.1000
@<TRIPOS>BOND
1     1     2     1
2     1     41    1
3     1     42    1
4     1     43    1
5     2     3     2
6     2     4     1
7     4     5     1
8     5     36    ar
9     5     6     ar
10    6     7     ar
11    6     44    1
12    7     12    1
13    7     8     ar
14    8     9     1
15    8     34    ar
16    9     10    1
17    9     45    1
18    9     46    1
19    10    11    2
20    10    47    1
21    11    32    1
22    11    12    1
23    12    13    1
24    12    14    1
25    13    48    1
26    13    49    1
27    13    50    1
28    14    15    1
29    14    51    1
30    14    52    1
31    15    16    1
32    15    53    1
33    15    54    1
34    16    32    1
35    16    17    1
36    16    18    1
37    17    55    1
38    17    56    1
39    17    57    1
40    18    19    1
41    18    28    1
42    18    20    1
43    20    21    1
44    20    58    1
45    20    59    1
46    21    22    1
47    21    23    1
48    21    26    1
49    22    60    1
50    22    61    1
51    22    62    1
52    23    24    ar
53    23    25    ar
54    26    27    1
55    26    63    1
56    26    64    1
57    27    28    1
58    27    65    1
59    27    66    1
60    28    29    1
61    28    30    1
62    29    67    1
63    29    68    1
64    29    69    1
65    30    31    1
66    30    70    1
67    30    71    1
68    31    32    1
69    31    72    1
70    31    73    1
71    32    33    1
72    33    74    1
73    33    75    1
74    33    76    1
75    34    35    1
76    34    36    ar
77    35    77    1
78    35    78    1
79    35    79    1
80    36    37    1
81    37    38    1
82    38    39    1
83    38    40    2
84    39    80    1
85    39    81    1
86    39    82    1
@<TRIPOS>SUBSTRUCTURE
1   ZINC000004165414 1     RESIDUE    1   A     ZIN   1


@<TRIPOS>MOLECULE
CN1C=NC2=C1C(=O)N(C(=O)N2C)C
  24   25    0    0    0
SMALL
USER_CHARGES
NO_NAME
@<TRIPOS>ATOM
    1 C1       -0.0178     1.4608     0.0101 C.3    1 <0>       0.0700
    2 N2        0.0021    -0.0041     0.0020 N.pl3  1 <0>      -0.4100
    3 C3        0.0085    -0.7996    -1.0853 C.2    1 <0>       0.2700
    4 N4        0.0275    -2.0544    -0.7142 N.2    1 <0>      -0.5000
    5 C5        0.0343    -2.1318     0.6190 C.2    1 <0>       0.3200
    6 C6        0.0238    -0.8312     1.1071 C.2    1 <0>      -0.1600
    7 C7        0.0280    -0.6203     2.5028 C.2    1 <0>       0.6000
    8 O8        0.0186     0.5105     2.9551 O.2    1 <0>      -0.5100
    9 N9        0.0421    -1.6862     3.3301 N.am   1 <0>      -0.5500
   10 C10       0.0460    -1.4744     4.7797 C.3    1 <0>       0.0800
   11 C11       0.0520    -2.9394     2.8441 C.2    1 <0>       0.7100
   12 O12       0.0642    -3.8758     3.6199 O.2    1 <0>      -0.5300
   13 N13       0.0527    -3.1841     1.5201 N.am   1 <0>      -0.5100
   14 C14       0.0633    -4.5652     1.0317 C.3    1 <0>       0.0900
   15 H15       1.0048     1.8381     0.0023 H      1 <0>       0.0900
   16 H16      -0.5450     1.8219    -0.8730 H      1 <0>       0.1000
   17 H17      -0.5280     1.8123     0.9069 H      1 <0>       0.1000
   18 H18      -0.0012    -0.4540    -2.1085 H      1 <0>       0.2300
   19 H19      -0.9806    -1.4321     5.1435 H      1 <0>       0.0800
   20 H20       0.5701    -2.2973     5.2657 H      1 <0>       0.1000
   21 H21       0.5515    -0.5362     5.0084 H      1 <0>       0.0900
   22 H22       0.0696    -5.2504     1.8794 H      1 <0>       0.1000
   23 H23      -0.8258    -4.7436     0.4269 H      1 <0>       0.0800
   24 H24       0.9541    -4.7293     0.4252 H      1 <0>       0.0800
@<TRIPOS>BOND
   1    1    2 1
   2    1   15 1
   3    1   16 1
   4    1   17 1
   5    2    6 1
   6    2    3 1
   7    3    4 2
   8    3   18 1
   9    4    5 1
  10    5   13 1
  11    5    6 2
  12    6    7 1
  13    7    8 2
  14    7    9 am
  15    9   10 1
  16    9   11 am
  17   10   19 1
  18   10   20 1
  19   10   21 1
  20   11   12 2
  21   11   13 am
  22   13   14 1
  23   14   22 1
  24   14   23 1
  25   14   24 1


@<TRIPOS>MOLECULE
C1=CC=C(C=C1)C(C2=CC=CC=C2)C(=O)NC(C(Cl)(Cl)Cl)NC(=S)NC3=CC(=C(C=C3)F)[N+](=O)[O-]
53    55    1     0     0
SMALL
USER_CHARGES
@<TRIPOS>ATOM
1      O1      0.9213   -0.5095   -0.6783 O.2      1 ZINC000016052819   -0.4600
2      C2      0.5284    0.6352   -0.7563 C.2      1 ZINC000016052819    0.5200
3      N3      1.3508    1.6533   -0.4343 N.am     1 ZINC000016052819   -0.7300
4      C4      2.7193    1.3772    0.0097 C.3      1 ZINC000016052819    0.3600
5      H5      2.9788    0.3465   -0.2322 H        1 ZINC000016052819    0.2000
6      N6      2.8124    1.5770    1.4581 N.am     1 ZINC000016052819   -0.6900
7      C7      2.8754    0.5127    2.2825 C.2      1 ZINC000016052819    0.5500
8      S8      2.8467   -1.0728    1.6373 S.2      1 ZINC000016052819   -0.5300
9      N9      2.9611    0.6966    3.6149 N.am     1 ZINC000016052819   -0.6300
10     C10     2.9349   -0.4063    4.4769 C.ar     1 ZINC000016052819    0.1200
11     C11     3.7001   -1.5293    4.1923 C.ar     1 ZINC000016052819    0.0100
12     C12     3.6729   -2.6165    5.0441 C.ar     1 ZINC000016052819   -0.1500
13     C13     2.8832   -2.5868    6.1809 C.ar     1 ZINC000016052819    0.1900
14     F14     2.8579   -3.6511    7.0127 F        1 ZINC000016052819   -0.1000
15     C15     2.1194   -1.4674    6.4669 C.ar     1 ZINC000016052819   -0.0800
16     N16     1.2765   -1.4382    7.6832 N.pl3    1 ZINC000016052819    0.0300
17     O17     0.6046   -0.4540    7.9351 O.2      1 ZINC000016052819   -0.1600
18     O18     1.2546   -2.3985    8.4322 O.2      1 ZINC000016052819   -0.1400
19     C19     2.1479   -0.3764    5.6208 C.ar     1 ZINC000016052819   -0.0300
20     C20     3.6870    2.3267   -0.6994 C.3      1 ZINC000016052819    0.1100
21     Cl21    3.2577    4.0315   -0.2991 Cl       1 ZINC000016052819   -0.0900
22     Cl22    5.3712    1.9868   -0.1529 Cl       1 ZINC000016052819   -0.0600
23     Cl23    3.5724    2.0807   -2.4818 Cl       1 ZINC000016052819   -0.0400
24     C24    -0.8773    0.9196   -1.2190 C.3      1 ZINC000016052819   -0.0200
25     C25    -0.8345    1.7674   -2.4642 C.ar     1 ZINC000016052819   -0.0800
26     C26     0.0718    1.4775   -3.4669 C.ar     1 ZINC000016052819   -0.1100
27     C27     0.1111    2.2552   -4.6091 C.ar     1 ZINC000016052819   -0.1100
28     C28    -0.7561    3.3226   -4.7487 C.ar     1 ZINC000016052819   -0.1100
29     C29    -1.6630    3.6120   -3.7463 C.ar     1 ZINC000016052819   -0.1200
30     C30    -1.7052    2.8317   -2.6060 C.ar     1 ZINC000016052819   -0.1100
31     C31    -1.5796   -0.3794   -1.5197 C.ar     1 ZINC000016052819   -0.0700
32     C32    -1.1329   -1.1839   -2.5513 C.ar     1 ZINC000016052819   -0.0800
33     C33    -1.7771   -2.3755   -2.8271 C.ar     1 ZINC000016052819   -0.1200
34     C34    -2.8677   -2.7627   -2.0711 C.ar     1 ZINC000016052819   -0.1100
35     C35    -3.3139   -1.9586   -1.0390 C.ar     1 ZINC000016052819   -0.1200
36     C36    -2.6670   -0.7691   -0.7604 C.ar     1 ZINC000016052819   -0.1100
37     H37     1.0366    2.5689   -0.4967 H        1 ZINC000016052819    0.4100
38     H38     2.8287    2.4754    1.8236 H        1 ZINC000016052819    0.4000
39     H39     3.0409    1.5931    3.9767 H        1 ZINC000016052819    0.4100
40     H40     4.3160   -1.5530    3.3055 H        1 ZINC000016052819    0.1800
41     H41     4.2677   -3.4903    4.8229 H        1 ZINC000016052819    0.1700
42     H42     1.5522    0.4963    5.8441 H        1 ZINC000016052819    0.1600
43     H43    -1.4171    1.4516   -0.4356 H        1 ZINC000016052819    0.1100
44     H44     0.7493    0.6436   -3.3579 H        1 ZINC000016052819    0.1200
45     H45     0.8196    2.0291   -5.3922 H        1 ZINC000016052819    0.1200
46     H46    -0.7249    3.9306   -5.6407 H        1 ZINC000016052819    0.1200
47     H47    -2.3403    4.4461   -3.8552 H        1 ZINC000016052819    0.1300
48     H48    -2.4137    3.0577   -1.8229 H        1 ZINC000016052819    0.1200
49     H49    -0.2809   -0.8814   -3.1419 H        1 ZINC000016052819    0.1200
50     H50    -1.4286   -3.0037   -3.6335 H        1 ZINC000016052819    0.1200
51     H51    -3.3715   -3.6933   -2.2871 H        1 ZINC000016052819    0.1200
52     H52    -4.1662   -2.2610   -0.4486 H        1 ZINC000016052819    0.1200
53     H53    -3.0156   -0.1409    0.0459 H        1 ZINC000016052819    0.1200
@<TRIPOS>BOND
1     1     2     2
2     2     3     am
3     2     24    1
4     3     4     1
5     3     37    1
6     4     5     1
7     4     6     1
8     4     20    1
9     6     7     am
10    6     38    1
11    7     8     2
12    7     9     am
13    9     10    1
14    9     39    1
15    10    19    ar
16    10    11    ar
17    11    12    ar
18    11    40    1
19    12    13    ar
20    12    41    1
21    13    14    1
22    13    15    ar
23    15    16    1
24    15    19    ar
25    16    17    2
26    16    18    2
27    19    42    1
28    20    21    1
29    20    22    1
30    20    23    1
31    24    25    1
32    24    31    1
33    24    43    1
34    25    30    ar
35    25    26    ar
36    26    27    ar
37    26    44    1
38    27    28    ar
39    27    45    1
40    28    29    ar
41    28    46    1
42    29    30    ar
43    29    47    1
44    30    48    1
45    31    36    ar
46    31    32    ar
47    32    33    ar
48    32    49    1
49    33    34    ar
50    33    50    1
51    34    35    ar
52    34    51    1
53    35    36    ar
54    35    52    1
55    36    53    1
@<TRIPOS>SUBSTRUCTURE
1   ZINC000016052819 1     RESIDUE    1   A     ZIN   1


@<TRIPOS>MOLECULE
CCC(=C)C(=O)C1=C(C(=C(C=C1)OCC(=O)O)Cl)Cl
30    30    1     0     0
SMALL
USER_CHARGES
@<TRIPOS>ATOM
1      C1      1.5588    1.3960    1.2311 C.2      1 ZINC000000001382   -0.1000
2      C2      1.4466    0.0699    1.2704 C.2      1 ZINC000000001382   -0.1900
3      C3      1.5758   -0.6587    2.5833 C.3      1 ZINC000000001382   -0.0900
4      C4      0.1848   -0.8902    3.1771 C.3      1 ZINC000000001382   -0.1500
5      C5      1.1965   -0.6838    0.0330 C.2      1 ZINC000000001382    0.4500
6      O6      1.1488   -0.1020   -1.0345 O.2      1 ZINC000000001382   -0.4400
7      C7      1.0034   -2.1453    0.0857 C.ar     1 ZINC000000001382   -0.1900
8      C8     -0.2794   -2.6879   -0.0360 C.ar     1 ZINC000000001382   -0.0300
9      C9     -0.4557   -4.0524    0.0132 C.ar     1 ZINC000000001382   -0.2000
10     C10     0.6391   -4.8921    0.1841 C.ar     1 ZINC000000001382    0.1800
11     O11     0.4596   -6.2365    0.2319 O.3      1 ZINC000000001382   -0.2600
12     C12    -0.8796   -6.7173    0.0999 C.3      1 ZINC000000001382   -0.0100
13     C13    -0.8828   -8.2224    0.1765 C.2      1 ZINC000000001382    0.5000
14     O14     0.1646   -8.8272    0.3299 O.co2    1 ZINC000000001382   -0.6600
15     O15    -1.9329   -8.8352    0.0852 O.co2    1 ZINC000000001382   -0.6800
16     C16     1.9177   -4.3586    0.3058 C.ar     1 ZINC000000001382   -0.0800
17     Cl17    3.2805   -5.4127    0.5190 Cl       1 ZINC000000001382   -0.0300
18     C18     2.1046   -2.9933    0.2519 C.ar     1 ZINC000000001382    0.0300
19     Cl19    3.7005   -2.3271    0.4037 Cl       1 ZINC000000001382   -0.0400
20     H20     1.4663    1.9181    0.2903 H        1 ZINC000000001382    0.1100
21     H21     1.7381    1.9499    2.1408 H        1 ZINC000000001382    0.1200
22     H22     2.0653   -1.6187    2.4194 H        1 ZINC000000001382    0.0800
23     H23     2.1706   -0.0607    3.2737 H        1 ZINC000000001382    0.0700
24     H24    -0.3047    0.0698    3.3410 H        1 ZINC000000001382    0.0500
25     H25    -0.4100   -1.4882    2.4867 H        1 ZINC000000001382    0.0600
26     H26     0.2783   -1.4172    4.1267 H        1 ZINC000000001382    0.0600
27     H27    -1.1312   -2.0373   -0.1681 H        1 ZINC000000001382    0.1400
28     H28    -1.4466   -4.4714   -0.0809 H        1 ZINC000000001382    0.1500
29     H29    -1.4924   -6.3112    0.9047 H        1 ZINC000000001382    0.0700
30     H30    -1.2860   -6.4015   -0.8609 H        1 ZINC000000001382    0.0700
@<TRIPOS>BOND
1     1     2     2
2     1     20    1
3     1     21    1
4     2     3     1
5     2     5     1
6     3     4     1
7     3     22    1
8     3     23    1
9     4     24    1
10    4     25    1
11    4     26    1
12    5     6     2
13    5     7     1
14    7     18    ar
15    7     8     ar
16    8     9     ar
17    8     27    1
18    9     10    ar
19    9     28    1
20    10    11    1
21    10    16    ar
22    11    12    1
23    12    13    1
24    12    29    1
25    12    30    1
26    13    14    ar
27    13    15    ar
28    16    17    1
29    16    18    ar
30    18    19    1
@<TRIPOS>SUBSTRUCTURE
1   ZINC000000001382 1     RESIDUE    1   A     ZIN   1


@<TRIPOS>MOLECULE
CC1=C(C2=C(N1C(=O)C3=CC=C(C=C3)Cl)C=CC(=C2)OC)CC(=O)O
  40   42    0    0    0
SMALL
USER_CHARGES
NO_NAME
@<TRIPOS>ATOM
    1 C1       -0.0134     1.4188     0.0188 C.3    1 <0>       0.0300
    2 O2        0.0046    -0.0101     0.0084 O.3    1 <0>      -0.3200
    3 C3       -1.1991    -0.6426     0.0150 C.ar   1 <0>       0.1000
    4 C4       -2.3739     0.1030     0.0253 C.ar   1 <0>      -0.1800
    5 C5       -3.6017    -0.5233     0.0321 C.ar   1 <0>      -0.0900
    6 C6       -3.6739    -1.9104     0.0290 C.ar   1 <0>       0.0800
    7 C7       -2.4891    -2.6668     0.0186 C.ar   1 <0>      -0.0400
    8 C8       -1.2511    -2.0235     0.0057 C.ar   1 <0>      -0.0900
    9 C9       -2.9034    -4.0741     0.0184 C.2    1 <0>      -0.0800
   10 C10      -1.9926    -5.2748     0.0094 C.3    1 <0>      -0.1300
   11 C11      -1.6791    -5.6781     1.4272 C.2    1 <0>       0.5000
   12 O12      -2.1514    -5.0489     2.3586 O.co2  1 <0>      -0.6900
   13 O13      -0.9531    -6.6336     1.6428 O.co2  1 <0>      -0.7000
   14 C14      -4.2435    -4.0921     0.0282 C.2    1 <0>       0.0700
   15 C15      -5.0922    -5.3374     0.0320 C.3    1 <0>      -0.0900
   16 N16      -4.7286    -2.8068     0.0347 N.am   1 <0>      -0.5100
   17 C17      -6.0335    -2.4698     0.0455 C.2    1 <0>       0.6100
   18 O18      -6.6073    -2.2280    -0.9981 O.2    1 <0>      -0.4400
   19 C19      -6.7661    -2.3944     1.3253 C.ar   1 <0>      -0.1600
   20 C20      -6.0857    -2.5619     2.5336 C.ar   1 <0>      -0.0400
   21 C21      -6.7752    -2.4899     3.7254 C.ar   1 <0>      -0.1200
   22 C22      -8.1399    -2.2520     3.7261 C.ar   1 <0>       0.0000
   23 Cl23     -9.0009    -2.1622     5.2309 Cl     1 <0>      -0.0600
   24 C24      -8.8203    -2.0850     2.5311 C.ar   1 <0>      -0.1300
   25 C25      -8.1412    -2.1495     1.3329 C.ar   1 <0>      -0.0400
   26 H26       1.0096     1.7951     0.0120 H      1 <0>       0.0900
   27 H27      -0.5399     1.7819    -0.8639 H      1 <0>       0.0500
   28 H28      -0.5235     1.7693     0.9160 H      1 <0>       0.0500
   29 H29      -2.3233     1.1818     0.0285 H      1 <0>       0.1300
   30 H30      -4.5077     0.0645     0.0401 H      1 <0>       0.1200
   31 H31      -0.3388    -2.6014    -0.0024 H      1 <0>       0.1300
   32 H32      -2.4857    -6.1010    -0.5028 H      1 <0>       0.0700
   33 H33      -1.0676    -5.0253    -0.5104 H      1 <0>       0.0700
   34 H34      -5.2893    -5.6396     1.0606 H      1 <0>       0.0800
   35 H35      -6.0360    -5.1354    -0.4745 H      1 <0>       0.0600
   36 H36      -4.5653    -6.1378    -0.4872 H      1 <0>       0.0900
   37 H37      -5.0218    -2.7478     2.5344 H      1 <0>       0.1500
   38 H38      -6.2504    -2.6196     4.6604 H      1 <0>       0.1500
   39 H39      -9.8844    -1.9002     2.5381 H      1 <0>       0.1400
   40 H40      -8.6727    -2.0189     0.4019 H      1 <0>       0.1400
@<TRIPOS>BOND
   1    1    2 1
   2    1   26 1
   3    1   27 1
   4    1   28 1
   5    2    3 1
   6    3    8 ar
   7    3    4 ar
   8    4    5 ar
   9    4   29 1
  10    5    6 ar
  11    5   30 1
  12    6   16 1
  13    6    7 ar
  14    7    8 ar
  15    7    9 1
  16    8   31 1
  17    9   10 1
  18    9   14 2
  19   10   11 1
  20   10   32 1
  21   10   33 1
  22   11   12 ar
  23   11   13 ar
  24   14   15 1
  25   14   16 1
  26   15   34 1
  27   15   35 1
  28   15   36 1
  29   16   17 am
  30   17   18 2
  31   17   19 1
  32   19   25 ar
  33   19   20 ar
  34   20   21 ar
  35   20   37 1
  36   21   22 ar
  37   21   38 1
  38   22   23 1
  39   22   24 ar
  40   24   25 ar
  41   24   39 1
  42   25   40 1


@<TRIPOS>MOLECULE
C1=CC(=C(C=C1Cl)O)OC2=C(C=C(C=C2)Cl)Cl
  24   25    0    0    0
SMALL
USER_CHARGES
NO_NAME
@<TRIPOS>ATOM
    1 O1       -2.3665    -0.8779     1.2954 O.3    1 <0>      -0.4800
    2 C2       -1.1958    -1.1343     0.6528 C.ar   1 <0>       0.1200
    3 C3       -1.2008    -1.8163    -0.5529 C.ar   1 <0>      -0.1300
    4 C4       -0.0086    -2.0760    -1.2057 C.ar   1 <0>      -0.0100
    5 Cl5      -0.0166    -2.9308    -2.7167 Cl     1 <0>      -0.0500
    6 C6        1.1894    -1.6555    -0.6568 C.ar   1 <0>      -0.1100
    7 C7        1.2005    -0.9743     0.5465 C.ar   1 <0>      -0.0900
    8 C8        0.0098    -0.7070     1.2024 C.ar   1 <0>       0.0500
    9 O9        0.0195    -0.0372     2.3859 O.3    1 <0>      -0.2400
   10 C10      -0.0743    -0.7635     3.5309 C.ar   1 <0>       0.1400
   11 C11      -0.0582    -2.1492     3.4777 C.ar   1 <0>      -0.1700
   12 C12      -0.1537    -2.8859     4.6429 C.ar   1 <0>      -0.0600
   13 C13      -0.2658    -2.2425     5.8625 C.ar   1 <0>      -0.0600
   14 Cl14     -0.3861    -3.1709     7.3244 Cl     1 <0>      -0.0500
   15 C15      -0.2817    -0.8598     5.9188 C.ar   1 <0>      -0.0700
   16 C16      -0.1807    -0.1189     4.7565 C.ar   1 <0>      -0.0500
   17 Cl17     -0.2006     1.6155     4.8272 Cl     1 <0>      -0.0400
   18 H18      -2.7771    -0.0390     1.0448 H      1 <0>       0.4000
   19 H19      -2.1351    -2.1455    -0.9833 H      1 <0>       0.1500
   20 H20       2.1180    -1.8599    -1.1690 H      1 <0>       0.1500
   21 H21       2.1372    -0.6474     0.9731 H      1 <0>       0.1500
   22 H22       0.0286    -2.6524     2.5260 H      1 <0>       0.1400
   23 H23      -0.1411    -3.9650     4.6014 H      1 <0>       0.1500
   24 H24      -0.3689    -0.3594     6.8719 H      1 <0>       0.1500
@<TRIPOS>BOND
   1    1    2 1
   2    1   18 1
   3    2    8 ar
   4    2    3 ar
   5    3    4 ar
   6    3   19 1
   7    4    5 1
   8    4    6 ar
   9    6    7 ar
  10    6   20 1
  11    7    8 ar
  12    7   21 1
  13    8    9 1
  14    9   10 1
  15   10   16 ar
  16   10   11 ar
  17   11   12 ar
  18   11   22 1
  19   12   13 ar
  20   12   23 1
  21   13   14 1
  22   13   15 ar
  23   15   16 ar
  24   15   24 1
  25   16   17 1


@<TRIPOS>MOLECULE
CC(C)(C)N1C2=NC=NC(=C2C(N1)C3=CC(=CC=C3)O)N
  41   43    0    0    0
SMALL
USER_CHARGES
NO_NAME
@<TRIPOS>ATOM
    1 C1       -0.0187     1.5258     0.0104 C.3    1 <0>      -0.1700
    2 C2        0.0021    -0.0041     0.0020 C.3    1 <0>       0.1700
    3 C3        0.7421    -0.5109     1.2415 C.3    1 <0>      -0.1700
    4 C4       -1.4333    -0.5336     0.0129 C.3    1 <0>      -0.1600
    5 N5        0.6878    -0.4765    -1.2033 N.pl3  1 <0>      -0.4000
    6 N6        0.1070    -1.2611    -2.1544 N.3    1 <0>      -0.4000
    7 C7        1.1193    -1.5154    -3.1979 C.3    1 <0>       0.1800
    8 H8        1.3243    -2.5830    -3.2774 H      1 <0>       0.1100
    9 C9        0.6567    -0.9693    -4.5241 C.ar   1 <0>      -0.0800
   10 C10      -0.0183     0.2360    -4.5771 C.ar   1 <0>      -0.0900
   11 C11      -0.4441     0.7398    -5.7925 C.ar   1 <0>      -0.1000
   12 C12      -0.1958     0.0395    -6.9569 C.ar   1 <0>      -0.1300
   13 C13       0.4815    -1.1704    -6.9063 C.ar   1 <0>       0.1200
   14 O14       0.7274    -1.8611    -8.0506 O.3    1 <0>      -0.4900
   15 C15       0.9125    -1.6709    -5.6866 C.ar   1 <0>      -0.1500
   16 C16       2.3445    -0.7782    -2.7206 C.ar   1 <0>      -0.3300
   17 C17       3.6232    -0.6095    -3.2220 C.ar   1 <0>       0.5300
   18 N18       3.9949    -1.1934    -4.4231 N.pl3  1 <0>      -0.7800
   19 N19       4.4910     0.1275    -2.5255 N.ar   1 <0>      -0.5300
   20 C20       4.1352     0.6816    -1.3845 C.ar   1 <0>       0.4400
   21 N21       2.9270     0.5411    -0.8792 N.ar   1 <0>      -0.5600
   22 H22       2.7080     0.9673    -0.0358 H      1 <0>       0.4400
   23 C23       1.9986    -0.1758    -1.5158 C.ar   1 <0>       0.4500
   24 H24       1.0039     1.9031     0.0027 H      1 <0>       0.0500
   25 H25      -0.5459     1.8868    -0.8726 H      1 <0>       0.0800
   26 H26      -0.5289     1.8773     0.9072 H      1 <0>       0.1000
   27 H27       0.2319    -0.1594     2.1383 H      1 <0>       0.1000
   28 H28       0.7568    -1.6008     1.2356 H      1 <0>       0.0800
   29 H29       1.7647    -0.1336     1.2338 H      1 <0>       0.0500
   30 H30      -1.9605    -0.1726    -0.8702 H      1 <0>       0.0800
   31 H31      -1.4185    -1.6235     0.0069 H      1 <0>       0.0700
   32 H32      -1.9435    -0.1821     0.9097 H      1 <0>       0.0900
   33 H33      -0.2263    -2.1259    -1.7555 H      1 <0>       0.3700
   34 H34      -0.2137     0.7849    -3.6678 H      1 <0>       0.1200
   35 H35      -0.9716     1.6815    -5.8313 H      1 <0>       0.1300
   36 H36      -0.5289     0.4332    -7.9058 H      1 <0>       0.1400
   37 H37       1.5668    -1.6348    -8.4740 H      1 <0>       0.4000
   38 H38       1.4399    -2.6124    -5.6446 H      1 <0>       0.1300
   39 H39       3.3560    -1.7268    -4.9214 H      1 <0>       0.4300
   40 H40       4.8939    -1.0686    -4.7654 H      1 <0>       0.4300
   41 H41       4.8602     1.2720    -0.8440 H      1 <0>       0.2500
@<TRIPOS>BOND
   1    1    2 1
   2    1   24 1
   3    1   25 1
   4    1   26 1
   5    2    3 1
   6    2    4 1
   7    2    5 1
   8    3   27 1
   9    3   28 1
  10    3   29 1
  11    4   30 1
  12    4   31 1
  13    4   32 1
  14    5   23 1
  15    5    6 1
  16    6    7 1
  17    6   33 1
  18    7    8 1
  19    7    9 1
  20    7   16 1
  21    9   15 ar
  22    9   10 ar
  23   10   11 ar
  24   10   34 1
  25   11   12 ar
  26   11   35 1
  27   12   13 ar
  28   12   36 1
  29   13   14 1
  30   13   15 ar
  31   14   37 1
  32   15   38 1
  33   16   23 ar
  34   16   17 ar
  35   17   18 1
  36   17   19 ar
  37   18   39 1
  38   18   40 1
  39   19   20 ar
  40   20   21 ar
  41   20   41 1
  42   21   22 1
  43   21   23 ar


@<TRIPOS>MOLECULE
COC1=C(C=CC(=C1)C=CC(=O)CC(=O)C=CC2=CC(=C(C=C2)O)OC)O
47    48    1     0     0
SMALL
USER_CHARGES
@<TRIPOS>ATOM
1      C1     -0.0173    1.4248    0.0099 C.3      1 ZINC000000899824    0.0200
2      O2      0.0021   -0.0041    0.0020 O.3      1 ZINC000000899824   -0.3100
3      C3     -1.2011   -0.6379    0.0101 C.ar     1 ZINC000000899824    0.1000
4      C4     -2.3683    0.0982    0.0195 C.ar     1 ZINC000000899824   -0.1700
5      C5     -3.6061   -0.5585    0.0278 C.ar     1 ZINC000000899824   -0.0600
6      C6     -4.8515    0.2183    0.0373 C.2      1 ZINC000000899824    0.0000
7      C7     -6.0479   -0.4192    0.0454 C.2      1 ZINC000000899824   -0.2400
8      C8     -7.2424    0.3259    0.0545 C.2      1 ZINC000000899824    0.3700
9      O9     -7.2010    1.5399    0.0552 O.2      1 ZINC000000899824   -0.4300
10     C10    -8.5723   -0.3828    0.0635 C.3      1 ZINC000000899824   -0.2200
11     C11    -9.6837    0.6349    0.0722 C.2      1 ZINC000000899824    0.3700
12     O12    -9.4212    1.8210    0.0713 O.2      1 ZINC000000899824   -0.4300
13     C13   -11.0262    0.2111    0.0815 C.2      1 ZINC000000899824   -0.2400
14     C14   -12.0260    1.1266    0.0894 C.2      1 ZINC000000899824    0.0000
15     C15   -13.4257    0.6847    0.0990 C.ar     1 ZINC000000899824   -0.0500
16     C16   -13.7307   -0.6820    0.1059 C.ar     1 ZINC000000899824   -0.1200
17     C17   -15.0451   -1.0935    0.1155 C.ar     1 ZINC000000899824   -0.1100
18     C18   -16.0700   -0.1565    0.1182 C.ar     1 ZINC000000899824    0.0900
19     O19   -17.3638   -0.5687    0.1281 O.3      1 ZINC000000899824   -0.4800
20     C20   -15.7746    1.2071    0.1114 C.ar     1 ZINC000000899824    0.1000
21     O21   -16.7819    2.1208    0.1146 O.3      1 ZINC000000899824   -0.3100
22     C22   -16.4071    3.4997    0.1071 C.3      1 ZINC000000899824    0.0200
23     C23   -14.4607    1.6291    0.1072 C.ar     1 ZINC000000899824   -0.1700
24     C24    -3.6513   -1.9581    0.0265 C.ar     1 ZINC000000899824   -0.1200
25     C25    -2.4809   -2.6842    0.0171 C.ar     1 ZINC000000899824   -0.1100
26     C26    -1.2549   -2.0321    0.0031 C.ar     1 ZINC000000899824    0.0900
27     O27    -0.1046   -2.7537   -0.0066 O.3      1 ZINC000000899824   -0.4800
28     H28     1.0053    1.8021    0.0021 H        1 ZINC000000899824    0.1000
29     H29    -0.5445    1.7859   -0.8732 H        1 ZINC000000899824    0.0600
30     H30    -0.5275    1.7763    0.9067 H        1 ZINC000000899824    0.0600
31     H31    -2.3279    1.1774    0.0208 H        1 ZINC000000899824    0.1400
32     H32    -4.8147    1.2977    0.0380 H        1 ZINC000000899824    0.1400
33     H33    -6.0846   -1.4985    0.0448 H        1 ZINC000000899824    0.1400
34     H34    -8.6577   -1.0064   -0.8264 H        1 ZINC000000899824    0.1300
35     H35    -8.6450   -1.0078    0.9535 H        1 ZINC000000899824    0.1300
36     H36   -11.2596   -0.8434    0.0823 H        1 ZINC000000899824    0.1400
37     H37   -11.7926    2.1811    0.0886 H        1 ZINC000000899824    0.1400
38     H38   -12.9357   -1.4130    0.1035 H        1 ZINC000000899824    0.1400
39     H39   -15.2792   -2.1478    0.1204 H        1 ZINC000000899824    0.1400
40     H40   -17.7329   -0.6846    1.0143 H        1 ZINC000000899824    0.3900
41     H41   -17.3034    4.1199    0.1107 H        1 ZINC000000899824    0.1000
42     H42   -15.8102    3.7188    0.9925 H        1 ZINC000000899824    0.0600
43     H43   -15.8217    3.7123   -0.7874 H        1 ZINC000000899824    0.0600
44     H44   -14.2309    2.6844    0.1022 H        1 ZINC000000899824    0.1400
45     H45    -4.6033   -2.4679    0.0333 H        1 ZINC000000899824    0.1400
46     H46    -2.5168   -3.7636    0.0165 H        1 ZINC000000899824    0.1400
47     H47     0.2197   -2.9650   -0.8927 H        1 ZINC000000899824    0.3900
@<TRIPOS>BOND
1     1     2     1
2     1     28    1
3     1     29    1
4     1     30    1
5     2     3     1
6     3     26    ar
7     3     4     ar
8     4     5     ar
9     4     31    1
10    5     6     1
11    5     24    ar
12    6     7     2
13    6     32    1
14    7     8     1
15    7     33    1
16    8     9     2
17    8     10    1
18    10    11    1
19    10    34    1
20    10    35    1
21    11    12    2
22    11    13    1
23    13    14    2
24    13    36    1
25    14    15    1
26    14    37    1
27    15    23    ar
28    15    16    ar
29    16    17    ar
30    16    38    1
31    17    18    ar
32    17    39    1
33    18    19    1
34    18    20    ar
35    19    40    1
36    20    21    1
37    20    23    ar
38    21    22    1
39    22    41    1
40    22    42    1
41    22    43    1
42    23    44    1
43    24    25    ar
44    24    45    1
45    25    26    ar
46    25    46    1
47    26    27    1
48    27    47    1
@<TRIPOS>SUBSTRUCTURE
1   ZINC000000899824 1     RESIDUE    1   A     ZIN   1


@<TRIPOS>MOLECULE
C1=CC(=C(C=C1C2=CC(=O)C3=C(C=C(C=C3O2)O)O)O)O
30    32    1     0     0
SMALL
USER_CHARGES
@<TRIPOS>ATOM
1      O1      0.0021   -0.0041    0.0020 O.2      1 ZINC000018185774   -0.5000
2      C2     -0.0145    1.2162    0.0087 C.2      1 ZINC000018185774    0.4300
3      C3     -1.2333    1.9348    0.0302 C.2      1 ZINC000018185774   -0.3100
4      C4     -1.2100    3.2948    0.0369 C.2      1 ZINC000018185774    0.1800
5      C5     -2.4908    4.0261    0.0594 C.ar     1 ZINC000018185774   -0.0500
6      C6     -3.6981    3.3232    0.0790 C.ar     1 ZINC000018185774   -0.0800
7      C7     -4.8942    4.0083    0.0999 C.ar     1 ZINC000018185774   -0.1300
8      C8     -4.9028    5.3960    0.1015 C.ar     1 ZINC000018185774    0.0900
9      O9     -6.0841    6.0663    0.1222 O.3      1 ZINC000018185774   -0.4900
10     C10    -3.7017    6.1039    0.0824 C.ar     1 ZINC000018185774    0.0800
11     O11    -3.7138    7.4638    0.0845 O.3      1 ZINC000018185774   -0.4800
12     C12    -2.4995    5.4241    0.0668 C.ar     1 ZINC000018185774   -0.0900
13     O13    -0.0658    3.9971    0.0244 O.3      1 ZINC000018185774   -0.2300
14     C14     1.1455    3.4014    0.0039 C.ar     1 ZINC000018185774    0.1900
15     C15     2.3074    4.1567   -0.0084 C.ar     1 ZINC000018185774   -0.2900
16     C16     3.5433    3.5285   -0.0300 C.ar     1 ZINC000018185774    0.3300
17     O17     4.6768    4.2755   -0.0424 O.3      1 ZINC000018185774   -0.6900
18     C18     3.6330    2.1411   -0.0387 C.ar     1 ZINC000018185774   -0.2900
19     C19     2.4847    1.3706   -0.0262 C.ar     1 ZINC000018185774    0.2200
20     O20     2.5700    0.0162   -0.0342 O.3      1 ZINC000018185774   -0.4900
21     C21     1.2334    1.9984    0.0010 C.ar     1 ZINC000018185774   -0.3700
22     H22    -2.1755    1.4071    0.0408 H        1 ZINC000018185774    0.1500
23     H23    -3.6944    2.2432    0.0775 H        1 ZINC000018185774    0.1400
24     H24    -5.8268    3.4638    0.1148 H        1 ZINC000018185774    0.1400
25     H25    -6.4113    6.2595    1.0114 H        1 ZINC000018185774    0.3900
26     H26    -3.7026    7.8559    0.9684 H        1 ZINC000018185774    0.3900
27     H27    -1.5684    5.9712    0.0524 H        1 ZINC000018185774    0.1500
28     H28     2.2501    5.2351   -0.0015 H        1 ZINC000018185774    0.1200
29     H29     4.6018    1.6640   -0.0556 H        1 ZINC000018185774    0.1200
30     H30     2.6074   -0.3807    0.8468 H        1 ZINC000018185774    0.3800
@<TRIPOS>BOND
1     1     2     2
2     2     21    1
3     2     3     1
4     3     4     2
5     3     22    1
6     4     5     1
7     4     13    1
8     5     12    ar
9     5     6     ar
10    6     7     ar
11    6     23    1
12    7     8     ar
13    7     24    1
14    8     9     1
15    8     10    ar
16    9     25    1
17    10    11    1
18    10    12    ar
19    11    26    1
20    12    27    1
21    13    14    1
22    14    21    ar
23    14    15    ar
24    15    16    ar
25    15    28    1
26    16    17    1
27    16    18    ar
28    18    19    ar
29    18    29    1
30    19    20    1
31    19    21    ar
32    20    30    1
@<TRIPOS>SUBSTRUCTURE
1   ZINC000018185774 1     RESIDUE    1   A     ZIN   1


@<TRIPOS>MOLECULE
CC1CCCC(=O)CCCC=CC2=C(C(=CC(=C2)O)O)C(=O)O1
  45   46    0    0    0
SMALL
USER_CHARGES
NO_NAME
@<TRIPOS>ATOM
    1 C1       -0.0187     1.5258     0.0104 C.3    1 <0>      -0.1800
    2 C2        0.0021    -0.0041     0.0020 C.3    1 <0>       0.0900
    3 H3       -1.0204    -0.3818     0.0098 H      1 <0>       0.1100
    4 C4        0.7195    -0.4981    -1.2561 C.3    1 <0>      -0.1500
    5 C5        1.6058     0.6177    -1.8122 C.3    1 <0>      -0.0900
    6 C6        2.5083     0.0530    -2.9111 C.3    1 <0>      -0.1600
    7 C7        3.9343     0.4664    -2.6534 C.2    1 <0>       0.3700
    8 O8        4.2114     1.6357    -2.5340 O.2    1 <0>      -0.4600
    9 C9        5.0150    -0.5785    -2.5443 C.3    1 <0>      -0.1700
   10 C10       6.0834    -0.1064    -1.5560 C.3    1 <0>      -0.1100
   11 C11       6.7294    -1.3190    -0.8832 C.3    1 <0>      -0.1000
   12 C12       6.1089    -1.5333     0.4739 C.2    1 <0>      -0.1200
   13 C13       4.8134    -1.3125     0.6519 C.2    1 <0>      -0.1700
   14 C14       4.1930    -1.5193     1.9743 C.ar   1 <0>       0.0500
   15 C15       4.9494    -1.9773     3.0455 C.ar   1 <0>      -0.1700
   16 C16       4.3550    -2.1709     4.2853 C.ar   1 <0>       0.1700
   17 O17       5.1003    -2.6185     5.3275 O.3    1 <0>      -0.4900
   18 C18       3.0034    -1.9091     4.4661 C.ar   1 <0>      -0.2000
   19 C19       2.2319    -1.4516     3.4112 C.ar   1 <0>       0.1900
   20 O20       0.9121    -1.1979     3.5944 O.3    1 <0>      -0.4800
   21 C21       2.8178    -1.2505     2.1537 C.ar   1 <0>      -0.1800
   22 C22       2.0161    -0.7627     1.0259 C.2    1 <0>       0.5100
   23 O23       2.5407    -0.6040    -0.0593 O.2    1 <0>      -0.4900
   24 O24       0.7062    -0.4862     1.1788 O.3    1 <0>      -0.3300
   25 H25       1.0039     1.9031     0.0027 H      1 <0>       0.0700
   26 H26      -0.5459     1.8868    -0.8726 H      1 <0>       0.0800
   27 H27      -0.5289     1.8773     0.9072 H      1 <0>       0.0600
   28 H28       1.3363    -1.3616    -1.0068 H      1 <0>       0.1000
   29 H29      -0.0181    -0.7837    -2.0061 H      1 <0>       0.0600
   30 H30       0.9789     1.4070    -2.2269 H      1 <0>       0.0600
   31 H31       2.2214     1.0261    -1.0107 H      1 <0>       0.0800
   32 H32       2.4403    -1.0348    -2.9135 H      1 <0>       0.0900
   33 H33       2.1874     0.4391    -3.8786 H      1 <0>       0.0900
   34 H34       4.5813    -1.5141    -2.1911 H      1 <0>       0.0900
   35 H35       5.4690    -0.7352    -3.5228 H      1 <0>       0.1000
   36 H36       6.8455     0.4620    -2.0891 H      1 <0>       0.0700
   37 H37       5.6224     0.5268    -0.7979 H      1 <0>       0.0700
   38 H38       6.5697    -2.2039    -1.4993 H      1 <0>       0.0800
   39 H39       7.7992    -1.1442    -0.7697 H      1 <0>       0.0800
   40 H40       6.7214    -1.8668     1.2984 H      1 <0>       0.1100
   41 H41       4.2052    -0.9798    -0.1780 H      1 <0>       0.1800
   42 H42       6.0013    -2.1835     2.9137 H      1 <0>       0.1400
   43 H43       5.5070    -1.9146     5.8512 H      1 <0>       0.4000
   44 H44       2.5514    -2.0636     5.4347 H      1 <0>       0.1400
   45 H45       0.7203    -0.2909     3.8694 H      1 <0>       0.4000
@<TRIPOS>BOND
   1    1    2 1
   2    1   25 1
   3    1   26 1
   4    1   27 1
   5    2    3 1
   6    2   24 1
   7    2    4 1
   8    4    5 1
   9    4   28 1
  10    4   29 1
  11    5    6 1
  12    5   30 1
  13    5   31 1
  14    6    7 1
  15    6   32 1
  16    6   33 1
  17    7    8 2
  18    7    9 1
  19    9   10 1
  20    9   34 1
  21    9   35 1
  22   10   11 1
  23   10   36 1
  24   10   37 1
  25   11   12 1
  26   11   38 1
  27   11   39 1
  28   12   13 2
  29   12   40 1
  30   13   14 1
  31   13   41 1
  32   14   21 ar
  33   14   15 ar
  34   15   16 ar
  35   15   42 1
  36   16   17 1
  37   16   18 ar
  38   17   43 1
  39   18   19 ar
  40   18   44 1
  41   19   20 1
  42   19   21 ar
  43   20   45 1
  44   21   22 1
  45   22   23 2
  46   22   24 1


@<TRIPOS>MOLECULE
C1=CC=C(C=C1)C2=CC(=O)C3=C(O2)C=C(C=C3)O
27    29    1     0     0
SMALL
USER_CHARGES
@<TRIPOS>ATOM
1      O1      0.0021   -0.0041    0.0020 O.2      1 ZINC000005934541   -0.5200
2      C2     -0.0145    1.2158    0.0087 C.2      1 ZINC000005934541    0.4200
3      C3     -1.2334    1.9350    0.0302 C.2      1 ZINC000005934541   -0.3200
4      C4     -1.2099    3.2943    0.0370 C.2      1 ZINC000005934541    0.1900
5      C5     -2.4922    4.0262    0.0594 C.ar     1 ZINC000005934541   -0.0600
6      C6     -3.6999    3.3250    0.0791 C.ar     1 ZINC000005934541   -0.0900
7      C7     -4.8940    4.0151    0.1005 C.ar     1 ZINC000005934541   -0.1200
8      C8     -4.8972    5.3988    0.1025 C.ar     1 ZINC000005934541   -0.1100
9      C9     -3.7044    6.0999    0.0826 C.ar     1 ZINC000005934541   -0.1200
10     C10    -2.5029    5.4227    0.0669 C.ar     1 ZINC000005934541   -0.0800
11     O11    -0.0663    3.9967    0.0246 O.3      1 ZINC000005934541   -0.2300
12     C12     1.1448    3.4023    0.0039 C.ar     1 ZINC000005934541    0.1900
13     C13     2.3083    4.1574   -0.0080 C.ar     1 ZINC000005934541   -0.2900
14     C14     3.5395    3.5227   -0.0288 C.ar     1 ZINC000005934541    0.3100
15     O15     4.6778    4.2622   -0.0405 O.3      1 ZINC000005934541   -0.7000
16     C16     3.6191    2.1322   -0.0374 C.ar     1 ZINC000005934541   -0.2600
17     C17     2.4818    1.3752   -0.0262 C.ar     1 ZINC000005934541    0.0000
18     C18     1.2350    1.9996    0.0010 C.ar     1 ZINC000005934541   -0.3500
19     H19    -2.1757    1.4074    0.0407 H        1 ZINC000005934541    0.1500
20     H20    -3.6988    2.2450    0.0772 H        1 ZINC000005934541    0.1300
21     H21    -5.8287    3.4741    0.1153 H        1 ZINC000005934541    0.1300
22     H22    -5.8351    5.9341    0.1193 H        1 ZINC000005934541    0.1200
23     H23    -3.7142    7.1799    0.0836 H        1 ZINC000005934541    0.1300
24     H24    -1.5726    5.9712    0.0519 H        1 ZINC000005934541    0.1400
25     H25     2.2545    5.2360   -0.0015 H        1 ZINC000005934541    0.1200
26     H26     4.5853    1.6498   -0.0533 H        1 ZINC000005934541    0.1100
27     H27     2.5481    0.2972   -0.0332 H        1 ZINC000005934541    0.1100
@<TRIPOS>BOND
1     1     2     2
2     2     18    1
3     2     3     1
4     3     4     2
5     3     19    1
6     4     5     1
7     4     11    1
8     5     10    ar
9     5     6     ar
10    6     7     ar
11    6     20    1
12    7     8     ar
13    7     21    1
14    8     9     ar
15    8     22    1
16    9     10    ar
17    9     23    1
18    10    24    1
19    11    12    1
20    12    18    ar
21    12    13    ar
22    13    14    ar
23    13    25    1
24    14    15    1
25    14    16    ar
26    16    17    ar
27    16    26    1
28    17    18    ar
29    17    27    1
@<TRIPOS>SUBSTRUCTURE
1   ZINC000005934541 1     RESIDUE    1   A     ZIN   1


@<TRIPOS>MOLECULE
C1=CC(=CC=C1C2=CC(=O)C3=C(C=C(C=C3O2)O)O)O
29    31    1     0     0
SMALL
USER_CHARGES
@<TRIPOS>ATOM
1      O1      0.0021   -0.0041    0.0020 O.2      1 ZINC000003871576   -0.5000
2      C2     -0.0145    1.2162    0.0087 C.2      1 ZINC000003871576    0.4300
3      C3     -1.2333    1.9348    0.0302 C.2      1 ZINC000003871576   -0.3100
4      C4     -1.2100    3.2948    0.0375 C.2      1 ZINC000003871576    0.1900
5      C5     -2.4908    4.0260    0.0599 C.ar     1 ZINC000003871576   -0.0600
6      C6     -3.6989    3.3232    0.0792 C.ar     1 ZINC000003871576   -0.0700
7      C7     -4.8925    4.0100    0.1006 C.ar     1 ZINC000003871576   -0.1500
8      C8     -4.8970    5.3997    0.1026 C.ar     1 ZINC000003871576    0.1200
9      O9     -6.0758    6.0727    0.1233 O.3      1 ZINC000003871576   -0.5000
10     C10    -3.6982    6.1025    0.0840 C.ar     1 ZINC000003871576   -0.1500
11     C11    -2.4999    5.4237    0.0679 C.ar     1 ZINC000003871576   -0.0700
12     O12    -0.0658    3.9970    0.0254 O.3      1 ZINC000003871576   -0.2300
13     C13     1.1455    3.4014    0.0049 C.ar     1 ZINC000003871576    0.1900
14     C14     2.3074    4.1567   -0.0064 C.ar     1 ZINC000003871576   -0.2900
15     C15     3.5433    3.5285   -0.0272 C.ar     1 ZINC000003871576    0.3200
16     O16     4.6768    4.2755   -0.0382 O.3      1 ZINC000003871576   -0.6900
17     C17     3.6330    2.1411   -0.0363 C.ar     1 ZINC000003871576   -0.2900
18     C18     2.4847    1.3706   -0.0257 C.ar     1 ZINC000003871576    0.2200
19     O19     2.5700    0.0162   -0.0350 O.3      1 ZINC000003871576   -0.4900
20     C20     1.2334    1.9984    0.0010 C.ar     1 ZINC000003871576   -0.3700
21     H21    -2.1755    1.4071    0.0404 H        1 ZINC000003871576    0.1500
22     H22    -3.6963    2.2432    0.0769 H        1 ZINC000003871576    0.1400
23     H23    -5.8264    3.4677    0.1154 H        1 ZINC000003871576    0.1400
24     H24    -6.4026    6.2665    1.0126 H        1 ZINC000003871576    0.3900
25     H25    -3.7061    7.1825    0.0860 H        1 ZINC000003871576    0.1300
26     H26    -1.5687    5.9707    0.0538 H        1 ZINC000003871576    0.1400
27     H27     2.2501    5.2351    0.0005 H        1 ZINC000003871576    0.1200
28     H28     4.6018    1.6640   -0.0521 H        1 ZINC000003871576    0.1200
29     H29     2.6065   -0.3816    0.8456 H        1 ZINC000003871576    0.3800
@<TRIPOS>BOND
1     1     2     2
2     2     20    1
3     2     3     1
4     3     4     2
5     3     21    1
6     4     5     1
7     4     12    1
8     5     11    ar
9     5     6     ar
10    6     7     ar
11    6     22    1
12    7     8     ar
13    7     23    1
14    8     9     1
15    8     10    ar
16    9     24    1
17    10    11    ar
18    10    25    1
19    11    26    1
20    12    13    1
21    13    20    ar
22    13    14    ar
23    14    15    ar
24    14    27    1
25    15    16    1
26    15    17    ar
27    17    18    ar
28    17    28    1
29    18    19    1
30    18    20    ar
31    19    29    1
@<TRIPOS>SUBSTRUCTURE
1   ZINC000003871576 1     RESIDUE    1   A     ZIN   1


@<TRIPOS>MOLECULE
C1=CC(=CC=C1C2=C(C(=O)C3=C(C=C(C=C3O2)O)O)O)O
30    32    1     0     0
SMALL
USER_CHARGES
@<TRIPOS>ATOM
1      O1     -0.9048    1.1655   -0.0632 O.2      1 ZINC000003869768   -0.5400
2      C2     -0.5701    2.3395   -0.0199 C.2      1 ZINC000003869768    0.4200
3      C3     -1.5294    3.3609    0.0376 C.2      1 ZINC000003869768   -0.4900
4      C4     -1.1404    4.6820    0.0811 C.2      1 ZINC000003869768    0.3200
5      O5     -2.0949    5.6416    0.1450 O.3      1 ZINC000003869768   -0.6800
6      C6      0.2051    5.0693    0.0623 C.2      1 ZINC000003869768   -0.1500
7      C7      1.2048    4.1461    0.0032 C.2      1 ZINC000003869768    0.1000
8      O8      2.4999    4.5378   -0.0408 O.3      1 ZINC000003869768   -0.2900
9      C9      3.4781    3.6588    0.5261 C.3      1 ZINC000003869768    0.1100
10     C10     3.3163    3.6169    2.0238 C.ar     1 ZINC000003869768   -0.1400
11     C11     4.2966    3.0372    2.8079 C.ar     1 ZINC000003869768   -0.0900
12     C12     4.1507    2.9975    4.1810 C.ar     1 ZINC000003869768   -0.1500
13     C13     3.0196    3.5403    4.7732 C.ar     1 ZINC000003869768    0.1100
14     O14     2.8739    3.5029    6.1238 O.3      1 ZINC000003869768   -0.5000
15     C15     2.0377    4.1218    3.9843 C.ar     1 ZINC000003869768   -0.1400
16     C16     2.1906    4.1633    2.6119 C.ar     1 ZINC000003869768   -0.0800
17     C17     3.2629    2.2730   -0.0503 C.2      1 ZINC000003869768    0.3500
18     O18     4.1801    1.6138   -0.4788 O.2      1 ZINC000003869768   -0.4200
19     C19     1.8579    1.7646   -0.0606 C.2      1 ZINC000003869768    0.0800
20     O20     1.5806    0.4472   -0.1012 O.3      1 ZINC000003869768   -0.4100
21     C21     0.8539    2.7219   -0.0203 C.2      1 ZINC000003869768   -0.1600
22     H22    -2.5799    3.1103    0.0475 H        1 ZINC000003869768    0.1100
23     H23     0.4548    6.1196    0.0948 H        1 ZINC000003869768    0.1300
24     H24     4.4784    4.0109    0.2743 H        1 ZINC000003869768    0.1500
25     H25     5.1769    2.6148    2.3464 H        1 ZINC000003869768    0.1300
26     H26     4.9163    2.5440    4.7930 H        1 ZINC000003869768    0.1300
27     H27     3.2407    4.2724    6.5804 H        1 ZINC000003869768    0.3900
28     H28     1.1561    4.5448    4.4429 H        1 ZINC000003869768    0.1400
29     H29     1.4266    4.6161    1.9974 H        1 ZINC000003869768    0.1500
30     H30     2.3333   -0.1594   -0.1235 H        1 ZINC000003869768    0.4000
@<TRIPOS>BOND
1     1     2     2
2     2     21    1
3     2     3     1
4     3     4     2
5     3     22    1
6     4     5     1
7     4     6     1
8     6     7     2
9     6     23    1
10    7     21    1
11    7     8     1
12    8     9     1
13    9     10    1
14    9     17    1
15    9     24    1
16    10    16    ar
17    10    11    ar
18    11    12    ar
19    11    25    1
20    12    13    ar
21    12    26    1
22    13    14    1
23    13    15    ar
24    14    27    1
25    15    16    ar
26    15    28    1
27    16    29    1
28    17    18    2
29    17    19    1
30    19    20    1
31    19    21    2
32    20    30    1
@<TRIPOS>SUBSTRUCTURE
1   ZINC000003869768 1     RESIDUE    1   A     ZIN   1


@<TRIPOS>MOLECULE
COC1=CC=C(C=C1)C2=C(C(=O)C3=C(C=C(C=C3O2)O)O)O
  33   35    0    0    0
SMALL
USER_CHARGES
NO_NAME
@<TRIPOS>ATOM
    1 C1        0.2212     0.9840     1.0122 C.3    1 <0>       0.0300
    2 O2        0.0016    -0.0031     0.0026 O.3    1 <0>      -0.3200
    3 C3       -1.1997    -0.6363     0.0105 C.ar   1 <0>       0.1300
    4 C4       -2.1496    -0.3076     0.9697 C.ar   1 <0>      -0.2100
    5 C5       -3.3695    -0.9473     0.9816 C.ar   1 <0>      -0.0500
    6 C6       -3.6510    -1.9285     0.0266 C.ar   1 <0>      -0.0700
    7 C7       -4.9556    -2.6157     0.0348 C.2    1 <0>       0.1300
    8 C8       -4.9820    -3.9743    -0.0651 C.2    1 <0>      -0.0600
    9 O9       -3.8213    -4.6771    -0.1698 O.3    1 <0>      -0.4600
   10 C10      -6.2294    -4.6506    -0.0586 C.2    1 <0>       0.4000
   11 O11      -6.2921    -5.8665    -0.1458 O.2    1 <0>      -0.5000
   12 C12      -7.4446    -3.8288     0.0580 C.ar   1 <0>      -0.3700
   13 C13      -8.7179    -4.4126     0.0730 C.ar   1 <0>       0.2200
   14 O14      -8.8535    -5.7597    -0.0206 O.3    1 <0>      -0.4900
   15 C15      -9.8354    -3.6062     0.1844 C.ar   1 <0>      -0.2900
   16 C16      -9.6944    -2.2261     0.2802 C.ar   1 <0>       0.3300
   17 O17     -10.7985    -1.4436     0.3888 O.3    1 <0>      -0.6900
   18 C18      -8.4376    -1.6414     0.2665 C.ar   1 <0>      -0.2900
   19 C19      -7.3049    -2.4330     0.1555 C.ar   1 <0>       0.2000
   20 O20      -6.0743    -1.8791     0.1461 O.3    1 <0>      -0.2100
   21 C21      -2.6923    -2.2559    -0.9366 C.ar   1 <0>      -0.0300
   22 C22      -1.4773    -1.6070    -0.9443 C.ar   1 <0>      -0.1600
   23 H23       1.2169     1.4111     0.8922 H      1 <0>       0.1000
   24 H24      -0.5259     1.7721     0.9184 H      1 <0>       0.0600
   25 H25       0.1403     0.5218     1.9960 H      1 <0>       0.0600
   26 H26      -1.9311     0.4504     1.7074 H      1 <0>       0.1300
   27 H27      -4.1071    -0.6914     1.7278 H      1 <0>       0.1300
   28 H28      -3.9453    -5.6339    -0.2354 H      1 <0>       0.4000
   29 H29      -8.8525    -6.2153     0.8324 H      1 <0>       0.3800
   30 H30     -10.8203    -4.0492     0.1967 H      1 <0>       0.1200
   31 H31      -8.3407    -0.5684     0.3419 H      1 <0>       0.1200
   32 H32      -2.9055    -3.0134    -1.6763 H      1 <0>       0.1400
   33 H33      -0.7361    -1.8591    -1.6882 H      1 <0>       0.1300
@<TRIPOS>BOND
   1    1    2 1
   2    1   23 1
   3    1   24 1
   4    1   25 1
   5    2    3 1
   6    3   22 ar
   7    3    4 ar
   8    4    5 ar
   9    4   26 1
  10    5    6 ar
  11    5   27 1
  12    6    7 1
  13    6   21 ar
  14    7   20 1
  15    7    8 2
  16    8    9 1
  17    8   10 1
  18    9   28 1
  19   10   11 2
  20   10   12 1
  21   12   19 ar
  22   12   13 ar
  23   13   14 1
  24   13   15 ar
  25   14   29 1
  26   15   16 ar
  27   15   30 1
  28   16   17 1
  29   16   18 ar
  30   18   19 ar
  31   18   31 1
  32   19   20 1
  33   21   22 ar
  34   21   32 1
  35   22   33 1


@<TRIPOS>MOLECULE
COC1=CC=C(C=C1)C2=CC(=O)C3=C(C=C(C=C3O2)O)O
32    34    1     0     0
SMALL
USER_CHARGES
@<TRIPOS>ATOM
1      C1     -0.0173    1.4248    0.0099 C.3      1 ZINC000003871358    0.0300
2      O2      0.0021   -0.0041    0.0020 O.3      1 ZINC000003871358   -0.3200
3      C3      0.6052   -0.6065   -1.0546 C.ar     1 ZINC000003871358    0.1400
4      C4      1.1723    0.1657   -2.0613 C.ar     1 ZINC000003871358   -0.2100
5      C5      1.7856   -0.4413   -3.1348 C.ar     1 ZINC000003871358   -0.0400
6      C6      1.8369   -1.8360   -3.2108 C.ar     1 ZINC000003871358   -0.0900
7      C7      2.4930   -2.4906   -4.3584 C.2      1 ZINC000003871358    0.1900
8      C8      2.5223   -3.8496   -4.4073 C.2      1 ZINC000003871358   -0.3200
9      C9      3.1469   -4.4951   -5.5006 C.2      1 ZINC000003871358    0.4300
10     O10     3.1914   -5.7123   -5.5771 O.2      1 ZINC000003871358   -0.5000
11     C11     3.7408   -3.6407   -6.5429 C.ar     1 ZINC000003871358   -0.3700
12     C12     4.3784   -4.1937   -7.6602 C.ar     1 ZINC000003871358    0.2200
13     O13     4.4608   -5.5408   -7.8032 O.3      1 ZINC000003871358   -0.4900
14     C14     4.9230   -3.3569   -8.6170 C.ar     1 ZINC000003871358   -0.2900
15     C15     4.8370   -1.9772   -8.4687 C.ar     1 ZINC000003871358    0.3200
16     O16     5.3751   -1.1647   -9.4139 O.3      1 ZINC000003871358   -0.7000
17     C17     4.2067   -1.4229   -7.3650 C.ar     1 ZINC000003871358   -0.2900
18     C18     3.6552   -2.2454   -6.3954 C.ar     1 ZINC000003871358    0.1900
19     O19     3.0336   -1.7222   -5.3174 O.3      1 ZINC000003871358   -0.2300
20     C20     1.2652   -2.6088   -2.1961 C.ar     1 ZINC000003871358   -0.0500
21     C21     0.6586   -1.9935   -1.1235 C.ar     1 ZINC000003871358   -0.1500
22     H22     1.0053    1.8021    0.0021 H        1 ZINC000003871358    0.0600
23     H23    -0.5445    1.7859   -0.8732 H        1 ZINC000003871358    0.0600
24     H24    -0.5275    1.7763    0.9067 H        1 ZINC000003871358    0.1000
25     H25     1.1319    1.2433   -2.0019 H        1 ZINC000003871358    0.1300
26     H26     2.2258    0.1595   -3.9169 H        1 ZINC000003871358    0.1400
27     H27     2.0723   -4.4319   -3.6168 H        1 ZINC000003871358    0.1500
28     H28     3.7173   -5.9316   -8.2824 H        1 ZINC000003871358    0.3800
29     H29     5.4166   -3.7761   -9.4813 H        1 ZINC000003871358    0.1100
30     H30     4.1460   -0.3497   -7.2606 H        1 ZINC000003871358    0.1200
31     H31     1.3026   -3.6867   -2.2510 H        1 ZINC000003871358    0.1400
32     H32     0.2166   -2.5898   -0.3390 H        1 ZINC000003871358    0.1400
@<TRIPOS>BOND
1     1     2     1
2     1     22    1
3     1     23    1
4     1     24    1
5     2     3     1
6     3     21    ar
7     3     4     ar
8     4     5     ar
9     4     25    1
10    5     6     ar
11    5     26    1
12    6     7     1
13    6     20    ar
14    7     19    1
15    7     8     2
16    8     9     1
17    8     27    1
18    9     10    2
19    9     11    1
20    11    18    ar
21    11    12    ar
22    12    13    1
23    12    14    ar
24    13    28    1
25    14    15    ar
26    14    29    1
27    15    16    1
28    15    17    ar
29    17    18    ar
30    17    30    1
31    18    19    1
32    20    21    ar
33    20    31    1
34    21    32    1
@<TRIPOS>SUBSTRUCTURE
1   ZINC000003871358 1     RESIDUE    1   A     ZIN   1


@<TRIPOS>MOLECULE
C1=CC=C(C=C1)C2=CC(=O)C3=C(C=C(C=C3O2)O)O
28    30    1     0     0
SMALL
USER_CHARGES
@<TRIPOS>ATOM
1      O1      0.0021   -0.0041    0.0020 O.2      1 ZINC000003872070   -0.5000
2      C2     -0.0145    1.2160    0.0087 C.2      1 ZINC000003872070    0.4300
3      C3     -1.2344    1.9355    0.0302 C.2      1 ZINC000003872070   -0.3100
4      C4     -1.2109    3.2942    0.0376 C.2      1 ZINC000003872070    0.1900
5      C5     -2.4933    4.0263    0.0605 C.ar     1 ZINC000003872070   -0.0600
6      C6     -3.7009    3.3252    0.0800 C.ar     1 ZINC000003872070   -0.0900
7      C7     -4.8950    4.0154    0.1014 C.ar     1 ZINC000003872070   -0.1200
8      C8     -4.8981    5.3991    0.1030 C.ar     1 ZINC000003872070   -0.1100
9      C9     -3.7052    6.1001    0.0832 C.ar     1 ZINC000003872070   -0.1200
10     C10    -2.5037    5.4227    0.0685 C.ar     1 ZINC000003872070   -0.0800
11     O11    -0.0671    3.9965    0.0252 O.3      1 ZINC000003872070   -0.2300
12     C12     1.1443    3.4015    0.0045 C.ar     1 ZINC000003872070    0.1900
13     C13     2.3058    4.1574   -0.0072 C.ar     1 ZINC000003872070   -0.2900
14     C14     3.5421    3.5299   -0.0280 C.ar     1 ZINC000003872070    0.3200
15     O15     4.6752    4.2774   -0.0390 O.3      1 ZINC000003872070   -0.6900
16     C16     3.6326    2.1424   -0.0372 C.ar     1 ZINC000003872070   -0.2900
17     C17     2.4849    1.3712   -0.0257 C.ar     1 ZINC000003872070    0.2200
18     O18     2.5711    0.0169   -0.0347 O.3      1 ZINC000003872070   -0.4900
19     C19     1.2330    1.9983    0.0010 C.ar     1 ZINC000003872070   -0.3700
20     H20    -2.1767    1.4080    0.0404 H        1 ZINC000003872070    0.1500
21     H21    -3.7000    2.2452    0.0781 H        1 ZINC000003872070    0.1300
22     H22    -5.8297    3.4746    0.1165 H        1 ZINC000003872070    0.1300
23     H23    -5.8359    5.9345    0.1194 H        1 ZINC000003872070    0.1200
24     H24    -3.7149    7.1801    0.0839 H        1 ZINC000003872070    0.1300
25     H25    -1.5734    5.9710    0.0532 H        1 ZINC000003872070    0.1400
26     H26     2.2480    5.2358   -0.0006 H        1 ZINC000003872070    0.1200
27     H27     4.6017    1.6659   -0.0538 H        1 ZINC000003872070    0.1200
28     H28     2.6083   -0.3807    0.8460 H        1 ZINC000003872070    0.3800
@<TRIPOS>BOND
1     1     2     2
2     2     19    1
3     2     3     1
4     3     4     2
5     3     20    1
6     4     5     1
7     4     11    1
8     5     10    ar
9     5     6     ar
10    6     7     ar
11    6     21    1
12    7     8     ar
13    7     22    1
14    8     9     ar
15    8     23    1
16    9     10    ar
17    9     24    1
18    10    25    1
19    11    12    1
20    12    19    ar
21    12    13    ar
22    13    14    ar
23    13    26    1
24    14    15    1
25    14    16    ar
26    16    17    ar
27    16    27    1
28    17    18    1
29    17    19    ar
30    18    28    1
@<TRIPOS>SUBSTRUCTURE
1   ZINC000003872070 1     RESIDUE    1   A     ZIN   1


@<TRIPOS>MOLECULE
COC1=CC=C(C=C1)C2=CC(=O)C3=C(O2)C=C(C=C3)O
31    33    1     0     0
SMALL
USER_CHARGES
@<TRIPOS>ATOM
1      C1     -0.0173    1.4248    0.0099 C.3      1 ZINC000005733557    0.0300
2      O2      0.0021   -0.0041    0.0020 O.3      1 ZINC000005733557   -0.3200
3      C3      0.6252   -0.6177    1.0404 C.ar     1 ZINC000005733557    0.1400
4      C4      1.2016    0.1435    2.0502 C.ar     1 ZINC000005733557   -0.2100
5      C5      1.8347   -0.4749    3.1054 C.ar     1 ZINC000005733557   -0.0400
6      C6      1.8969   -1.8703    3.1598 C.ar     1 ZINC000005733557   -0.1000
7      C7      2.5735   -2.5369    4.2882 C.2      1 ZINC000005733557    0.2000
8      C8      2.6226   -3.8968    4.3106 C.2      1 ZINC000005733557   -0.3200
9      C9      3.2673   -4.5539    5.3838 C.2      1 ZINC000005733557    0.4300
10     O10     3.3305   -5.7713    5.4359 O.2      1 ZINC000005733557   -0.5200
11     C11     3.8609   -3.7097    6.4379 C.ar     1 ZINC000005733557   -0.3500
12     C12     4.5164   -4.2720    7.5330 C.ar     1 ZINC000005733557    0.0000
13     C13     5.0552   -3.4603    8.4910 C.ar     1 ZINC000005733557   -0.2700
14     C14     4.9531   -2.0758    8.3795 C.ar     1 ZINC000005733557    0.3100
15     O15     5.4936   -1.2816    9.3386 O.3      1 ZINC000005733557   -0.7000
16     C16     4.3051   -1.5025    7.2975 C.ar     1 ZINC000005733557   -0.2900
17     C17     3.7532   -2.3136    6.3171 C.ar     1 ZINC000005733557    0.1900
18     O18     3.1218   -1.7791    5.2509 O.3      1 ZINC000005733557   -0.2300
19     C19     1.3158   -2.6320    2.1420 C.ar     1 ZINC000005733557   -0.0500
20     C20     0.6798   -2.0054    1.0934 C.ar     1 ZINC000005733557   -0.1500
21     H21     1.0053    1.8021    0.0021 H        1 ZINC000005733557    0.0600
22     H22    -0.5445    1.7859   -0.8732 H        1 ZINC000005733557    0.1000
23     H23    -0.5275    1.7763    0.9067 H        1 ZINC000005733557    0.0600
24     H24     1.1534    1.2216    2.0072 H        1 ZINC000005733557    0.1300
25     H25     2.2827    0.1174    3.8895 H        1 ZINC000005733557    0.1400
26     H26     2.1720   -4.4703    3.5140 H        1 ZINC000005733557    0.1500
27     H27     4.5975   -5.3451    7.6236 H        1 ZINC000005733557    0.1100
28     H28     5.5626   -3.8947    9.3396 H        1 ZINC000005733557    0.1100
29     H29     4.2296   -0.4281    7.2180 H        1 ZINC000005733557    0.1100
30     H30     1.3620   -3.7103    2.1800 H        1 ZINC000005733557    0.1400
31     H31     0.2305   -2.5931    0.3065 H        1 ZINC000005733557    0.1400
@<TRIPOS>BOND
1     1     2     1
2     1     21    1
3     1     22    1
4     1     23    1
5     2     3     1
6     3     20    ar
7     3     4     ar
8     4     5     ar
9     4     24    1
10    5     6     ar
11    5     25    1
12    6     7     1
13    6     19    ar
14    7     18    1
15    7     8     2
16    8     9     1
17    8     26    1
18    9     10    2
19    9     11    1
20    11    17    ar
21    11    12    ar
22    12    13    ar
23    12    27    1
24    13    14    ar
25    13    28    1
26    14    15    1
27    14    16    ar
28    16    17    ar
29    16    29    1
30    17    18    1
31    19    20    ar
32    19    30    1
33    20    31    1
@<TRIPOS>SUBSTRUCTURE
1   ZINC000005733557 1     RESIDUE    1   A     ZIN   1


@<TRIPOS>MOLECULE
C1=CC=C(C=C1)C2=C(C(=O)C3=C(C=C(C=C3O2)O)O)O
29    31    1     0     0
SMALL
USER_CHARGES
@<TRIPOS>ATOM
1      O1     -0.9165    1.1862   -0.0639 O.2      1 ZINC000000120273   -0.5400
2      C2     -0.5763    2.3587   -0.0200 C.2      1 ZINC000000120273    0.4200
3      C3     -1.5308    3.3844    0.0381 C.2      1 ZINC000000120273   -0.4900
4      C4     -1.1356    4.7037    0.0823 C.2      1 ZINC000000120273    0.3200
5      O5     -2.0856    5.6677    0.1467 O.3      1 ZINC000000120273   -0.6800
6      C6      0.2117    5.0848    0.0634 C.2      1 ZINC000000120273   -0.1500
7      C7      1.2070    4.1569    0.0037 C.2      1 ZINC000000120273    0.1000
8      O8      2.5039    4.5426   -0.0402 O.3      1 ZINC000000120273   -0.2900
9      C9      3.4781    3.6588    0.5261 C.3      1 ZINC000000120273    0.1100
10     C10     3.3163    3.6169    2.0238 C.ar     1 ZINC000000120273   -0.1300
11     C11     4.2956    3.0376    2.8088 C.ar     1 ZINC000000120273   -0.1100
12     C12     4.1472    2.9991    4.1826 C.ar     1 ZINC000000120273   -0.1200
13     C13     3.0198    3.5404    4.7715 C.ar     1 ZINC000000120273   -0.1100
14     C14     2.0409    4.1205    3.9865 C.ar     1 ZINC000000120273   -0.1100
15     C15     2.1913    4.1628    2.6130 C.ar     1 ZINC000000120273   -0.1000
16     C16     3.2563    2.2743   -0.0510 C.2      1 ZINC000000120273    0.3500
17     O17     4.1704    1.6110   -0.4799 O.2      1 ZINC000000120273   -0.4200
18     C18     1.8490    1.7724   -0.0613 C.2      1 ZINC000000120273    0.0800
19     O19     1.5656    0.4564   -0.1025 O.3      1 ZINC000000120273   -0.4100
20     C20     0.8495    2.7344   -0.0205 C.2      1 ZINC000000120273   -0.1600
21     H21    -2.5825    3.1387    0.0480 H        1 ZINC000000120273    0.1100
22     H22     0.4663    6.1338    0.0964 H        1 ZINC000000120273    0.1300
23     H23     4.4800    4.0064    0.2743 H        1 ZINC000000120273    0.1500
24     H24     5.1765    2.6147    2.3487 H        1 ZINC000000120273    0.1200
25     H25     4.9120    2.5459    4.7959 H        1 ZINC000000120273    0.1200
26     H26     2.9035    3.5097    5.8448 H        1 ZINC000000120273    0.1200
27     H27     1.1599    4.5431    4.4466 H        1 ZINC000000120273    0.1300
28     H28     1.4265    4.6161    1.9998 H        1 ZINC000000120273    0.1400
29     H29     2.3155   -0.1537   -0.1253 H        1 ZINC000000120273    0.4000
@<TRIPOS>BOND
1     1     2     2
2     2     20    1
3     2     3     1
4     3     4     2
5     3     21    1
6     4     5     1
7     4     6     1
8     6     7     2
9     6     22    1
10    7     20    1
11    7     8     1
12    8     9     1
13    9     10    1
14    9     16    1
15    9     23    1
16    10    15    ar
17    10    11    ar
18    11    12    ar
19    11    24    1
20    12    13    ar
21    12    25    1
22    13    14    ar
23    13    26    1
24    14    15    ar
25    14    27    1
26    15    28    1
27    16    17    2
28    16    18    1
29    18    19    1
30    18    20    2
31    19    29    1
@<TRIPOS>SUBSTRUCTURE
1   ZINC000000120273 1     RESIDUE    1   A     ZIN   1


@<TRIPOS>MOLECULE
COC1=CC2=C(C=C1)C(=O)C=C(O2)C3=CC=CC=C3
31    33    1     0     0
SMALL
USER_CHARGES
@<TRIPOS>ATOM
1      C1     -0.0173    1.4248    0.0099 C.3      1 ZINC000000018056    0.0200
2      O2      0.0021   -0.0041    0.0020 O.3      1 ZINC000000018056   -0.3100
3      C3      0.6051   -0.6064   -1.0545 C.ar     1 ZINC000000018056    0.1900
4      C4      1.1723    0.1710   -2.0614 C.ar     1 ZINC000000018056   -0.2300
5      C5      1.7825   -0.4215   -3.1306 C.ar     1 ZINC000000018056    0.0100
6      C6      1.8371   -1.8127   -3.2130 C.ar     1 ZINC000000018056   -0.2600
7      C7      2.4876   -2.4880   -4.3514 C.2      1 ZINC000000018056    0.4300
8      O8      2.9993   -1.8518   -5.2581 O.2      1 ZINC000000018056   -0.4700
9      C9      2.4953   -3.9034   -4.3502 C.2      1 ZINC000000018056   -0.3100
10     C10     1.9149   -4.5762   -3.3213 C.2      1 ZINC000000018056    0.2100
11     C11     1.9334   -6.0527   -3.3385 C.ar     1 ZINC000000018056   -0.0700
12     C12     2.5435   -6.7343   -4.3938 C.ar     1 ZINC000000018056   -0.0800
13     C13     2.5575   -8.1136   -4.4033 C.ar     1 ZINC000000018056   -0.1200
14     C14     1.9690   -8.8218   -3.3704 C.ar     1 ZINC000000018056   -0.0900
15     C15     1.3627   -8.1529   -2.3217 C.ar     1 ZINC000000018056   -0.1200
16     C16     1.3460   -6.7739   -2.2967 C.ar     1 ZINC000000018056   -0.0800
17     O17     1.3261   -3.9505   -2.2903 O.3      1 ZINC000000018056   -0.2200
18     C18     1.2674   -2.6053   -2.2016 C.ar     1 ZINC000000018056    0.1900
19     C19     0.6563   -1.9893   -1.1195 C.ar     1 ZINC000000018056   -0.1800
20     H20     1.0053    1.8021    0.0021 H        1 ZINC000000018056    0.0600
21     H21    -0.5445    1.7859   -0.8732 H        1 ZINC000000018056    0.0600
22     H22    -0.5275    1.7763    0.9067 H        1 ZINC000000018056    0.1100
23     H23     1.1291    1.2482   -1.9967 H        1 ZINC000000018056    0.1400
24     H24     2.2207    0.1852   -3.9093 H        1 ZINC000000018056    0.1500
25     H25     2.9589   -4.4452   -5.1614 H        1 ZINC000000018056    0.1600
26     H26     3.0030   -6.1828   -5.2008 H        1 ZINC000000018056    0.1400
27     H27     3.0287   -8.6420   -5.2189 H        1 ZINC000000018056    0.1300
28     H28     1.9825   -9.9016   -3.3830 H        1 ZINC000000018056    0.1300
29     H29     0.9053   -8.7119   -1.5188 H        1 ZINC000000018056    0.1300
30     H30     0.8725   -6.2530   -1.4776 H        1 ZINC000000018056    0.1400
31     H31     0.2186   -2.5855   -0.3325 H        1 ZINC000000018056    0.1500
@<TRIPOS>BOND
1     1     2     1
2     1     20    1
3     1     21    1
4     1     22    1
5     2     3     1
6     3     19    ar
7     3     4     ar
8     4     5     ar
9     4     23    1
10    5     6     ar
11    5     24    1
12    6     18    ar
13    6     7     1
14    7     8     2
15    7     9     1
16    9     10    2
17    9     25    1
18    10    11    1
19    10    17    1
20    11    16    ar
21    11    12    ar
22    12    13    ar
23    12    26    1
24    13    14    ar
25    13    27    1
26    14    15    ar
27    14    28    1
28    15    16    ar
29    15    29    1
30    16    30    1
31    17    18    1
32    18    19    ar
33    19    31    1
@<TRIPOS>SUBSTRUCTURE
1   ZINC000000018056 1     RESIDUE    1   A     ZIN   1


@<TRIPOS>MOLECULE
COC1=CC(=C2C(=C1)OC(=CC2=O)C3=CC=CC=C3)O
32    34    1     0     0
SMALL
USER_CHARGES
@<TRIPOS>ATOM
1      C1     -0.0173    1.4248    0.0099 C.3      1 ZINC000018136415    0.0200
2      O2      0.0021   -0.0041    0.0020 O.3      1 ZINC000018136415   -0.3100
3      C3      0.6250   -0.6175    1.0401 C.2      1 ZINC000018136415    0.2500
4      C4      1.1947    0.1543    2.0388 C.2      1 ZINC000018136415   -0.3600
5      C5      1.8398   -0.4594    3.1148 C.2      1 ZINC000018136415    0.3800
6      O6      2.3923    0.2709    4.0826 O.2      1 ZINC000018136415   -0.5700
7      C7      1.8959   -1.9193    3.1574 C.2      1 ZINC000018136415   -0.2900
8      C8      2.5322   -2.5950    4.2172 C.2      1 ZINC000018136415    0.3300
9      O9      3.1106   -1.9099    5.2279 O.3      1 ZINC000018136415   -0.3900
10     C10     2.5492   -3.9943    4.1964 C.2      1 ZINC000018136415   -0.3300
11     C11     1.9516   -4.6687    3.1543 C.2      1 ZINC000018136415    0.2600
12     C12     1.9756   -6.1440    3.1424 C.ar     1 ZINC000018136415   -0.0900
13     C13     2.5935   -6.8443    4.1816 C.ar     1 ZINC000018136415   -0.0700
14     C14     2.6117   -8.2233    4.1641 C.ar     1 ZINC000018136415   -0.1200
15     C15     2.0198   -8.9132    3.1206 C.ar     1 ZINC000018136415   -0.0800
16     C16     1.4059   -8.2262    2.0880 C.ar     1 ZINC000018136415   -0.1200
17     C17     1.3754   -6.8473    2.0949 C.ar     1 ZINC000018136415   -0.0700
18     O18     1.3475   -4.0144    2.1494 O.3      1 ZINC000018136415   -0.1900
19     C19     1.3012   -2.6659    2.1179 C.2      1 ZINC000018136415    0.2100
20     C20     0.6714   -2.0048    1.0793 C.2      1 ZINC000018136415   -0.2500
21     H21     1.0053    1.8021    0.0021 H        1 ZINC000018136415    0.0600
22     H22    -0.5445    1.7859   -0.8732 H        1 ZINC000018136415    0.1000
23     H23    -0.5275    1.7763    0.9067 H        1 ZINC000018136415    0.0600
24     H24     1.1405    1.2316    1.9855 H        1 ZINC000018136415    0.1400
25     H25     3.5178   -2.4716    5.9014 H        1 ZINC000018136415    0.4100
26     H26     3.0290   -4.5429    4.9934 H        1 ZINC000018136415    0.1700
27     H27     3.0562   -6.3072    4.9964 H        1 ZINC000018136415    0.1400
28     H28     3.0892   -8.7660    4.9665 H        1 ZINC000018136415    0.1400
29     H29     2.0373   -9.9930    3.1120 H        1 ZINC000018136415    0.1300
30     H30     0.9460   -8.7711    1.2769 H        1 ZINC000018136415    0.1400
31     H31     0.8957   -6.3125    1.2886 H        1 ZINC000018136415    0.1400
32     H32     0.2121   -2.5755    0.2857 H        1 ZINC000018136415    0.1500
@<TRIPOS>BOND
1     1     2     1
2     1     21    1
3     1     22    1
4     1     23    1
5     2     3     1
6     3     20    1
7     3     4     2
8     4     5     1
9     4     24    1
10    5     6     2
11    5     7     1
12    7     19    1
13    7     8     2
14    8     9     1
15    8     10    1
16    9     25    1
17    10    11    2
18    10    26    1
19    11    12    1
20    11    18    1
21    12    17    ar
22    12    13    ar
23    13    14    ar
24    13    27    1
25    14    15    ar
26    14    28    1
27    15    16    ar
28    15    29    1
29    16    17    ar
30    16    30    1
31    17    31    1
32    18    19    1
33    19    20    2
34    20    32    1
@<TRIPOS>SUBSTRUCTURE
1   ZINC000018136415 1     RESIDUE    1   A     ZIN   1


@<TRIPOS>MOLECULE
COC1=CC2=C(C(=C1)OC)C(=O)C(=C(O2)C3=CC=CC=C3)OC
  39   41    0    0    0
SMALL
USER_CHARGES
NO_NAME
@<TRIPOS>ATOM
    1 C1        0.0497     1.5591    -0.1678 C.3    1 <0>       0.0200
    2 O2        0.1316     0.1349    -0.0836 O.3    1 <0>      -0.3000
    3 C3        0.6710    -0.5153    -1.1462 C.ar   1 <0>       0.2300
    4 C4        1.1166     0.2120    -2.2446 C.ar   1 <0>      -0.3300
    5 C5        1.6680    -0.4396    -3.3320 C.ar   1 <0>       0.2600
    6 O6        2.1038     0.2686    -4.4046 O.3    1 <0>      -0.2800
    7 C7        1.9627     1.6893    -4.3447 C.3    1 <0>       0.0200
    8 C8        1.7739    -1.8366    -3.3183 C.ar   1 <0>      -0.2900
    9 C9        2.3547    -2.5695    -4.4542 C.2    1 <0>       0.4100
   10 O10       2.7628    -1.9846    -5.4445 O.2    1 <0>      -0.4400
   11 C11       2.4223    -3.9849    -4.3526 C.2    1 <0>      -0.0800
   12 O12       2.9488    -4.7211    -5.3684 O.3    1 <0>      -0.3000
   13 C13       2.2349    -4.7225    -6.6063 C.3    1 <0>       0.0300
   14 C14       1.9563    -4.5986    -3.2302 C.2    1 <0>       0.1700
   15 C15       2.0339    -6.0697    -3.1406 C.ar   1 <0>      -0.0700
   16 C16       3.2219    -6.7306    -3.4620 C.ar   1 <0>      -0.0600
   17 C17       3.2872    -8.1057    -3.3761 C.ar   1 <0>      -0.1200
   18 C18       2.1794    -8.8304    -2.9730 C.ar   1 <0>      -0.1000
   19 C19       0.9992    -8.1824    -2.6535 C.ar   1 <0>      -0.1300
   20 C20       0.9215    -6.8073    -2.7285 C.ar   1 <0>      -0.0800
   21 O21       1.4287    -3.9147    -2.2006 O.3    1 <0>      -0.2000
   22 C22       1.3224    -2.5696    -2.2063 C.ar   1 <0>       0.2200
   23 C23       0.7773    -1.8973    -1.1233 C.ar   1 <0>      -0.2200
   24 H24       1.0504     1.9741    -0.2880 H      1 <0>       0.0600
   25 H25      -0.5645     1.8377    -1.0242 H      1 <0>       0.0600
   26 H26      -0.3994     1.9518     0.7445 H      1 <0>       0.1100
   27 H27       1.0314     1.2887    -2.2482 H      1 <0>       0.1500
   28 H28       2.5224     2.0744    -3.4924 H      1 <0>       0.0600
   29 H29       2.3489     2.1318    -5.2629 H      1 <0>       0.1100
   30 H30       0.9091     1.9454    -4.2331 H      1 <0>       0.0600
   31 H31       2.7103    -5.4168    -7.2991 H      1 <0>       0.1000
   32 H32       1.2046    -5.0322    -6.4313 H      1 <0>       0.0400
   33 H33       2.2453    -3.7194    -7.0328 H      1 <0>       0.0600
   34 H34       4.0870    -6.1663    -3.7775 H      1 <0>       0.1400
   35 H35       4.2049    -8.6180    -3.6243 H      1 <0>       0.1300
   36 H36       2.2360    -9.9069    -2.9078 H      1 <0>       0.1300
   37 H37       0.1383    -8.7543    -2.3403 H      1 <0>       0.1300
   38 H38      -0.0001    -6.3028    -2.4784 H      1 <0>       0.1300
   39 H39       0.4321    -2.4508    -0.2626 H      1 <0>       0.1600
@<TRIPOS>BOND
   1    1    2 1
   2    1   24 1
   3    1   25 1
   4    1   26 1
   5    2    3 1
   6    3   23 ar
   7    3    4 ar
   8    4    5 ar
   9    4   27 1
  10    5    6 1
  11    5    8 ar
  12    6    7 1
  13    7   28 1
  14    7   29 1
  15    7   30 1
  16    8   22 ar
  17    8    9 1
  18    9   10 2
  19    9   11 1
  20   11   12 1
  21   11   14 2
  22   12   13 1
  23   13   31 1
  24   13   32 1
  25   13   33 1
  26   14   15 1
  27   14   21 1
  28   15   20 ar
  29   15   16 ar
  30   16   17 ar
  31   16   34 1
  32   17   18 ar
  33   17   35 1
  34   18   19 ar
  35   18   36 1
  36   19   20 ar
  37   19   37 1
  38   20   38 1
  39   21   22 1
  40   22   23 ar
  41   23   39 1


@<TRIPOS>MOLECULE
COC1=CC=C(C=C1)C2CC(=O)C3=C(C=C(C=C3O2)O)O
35    37    1     0     0
SMALL
USER_CHARGES
@<TRIPOS>ATOM
1      C1     -0.0173    1.4248    0.0099 C.3      1 ZINC000000895707    0.0300
2      O2      0.0021   -0.0041    0.0020 O.3      1 ZINC000000895707   -0.3200
3      C3      0.6258   -0.6184    1.0415 C.ar     1 ZINC000000895707    0.1400
4      C4      1.2022    0.1384    2.0513 C.ar     1 ZINC000000895707   -0.2100
5      C5      1.8353   -0.4884    3.1070 C.ar     1 ZINC000000895707   -0.0600
6      C6      1.8951   -1.8688    3.1577 C.ar     1 ZINC000000895707   -0.1300
7      C7      2.5867   -2.5500    4.3104 C.3      1 ZINC000000895707    0.1500
8      H8      3.2637   -1.8468    4.7953 H        1 ZINC000000895707    0.0900
9      C9      1.5388   -3.0339    5.3233 C.3      1 ZINC000000895707   -0.1900
10     C10     2.2861   -3.7394    6.4406 C.2      1 ZINC000000895707    0.4000
11     O11     1.9683   -3.6057    7.6044 O.2      1 ZINC000000895707   -0.4300
12     C12     3.4122   -4.5908    6.0417 C.ar     1 ZINC000000895707   -0.2900
13     C13     4.0004   -5.4763    6.9581 C.ar     1 ZINC000000895707    0.2200
14     O14     3.5244   -5.5641    8.2250 O.3      1 ZINC000000895707   -0.4800
15     C15     5.0692   -6.2593    6.5593 C.ar     1 ZINC000000895707   -0.2200
16     C16     5.5523   -6.1679    5.2600 C.ar     1 ZINC000000895707    0.2000
17     O17     6.6028   -6.9370    4.8787 O.3      1 ZINC000000895707   -0.4900
18     C18     4.9704   -5.2974    4.3469 C.ar     1 ZINC000000895707   -0.2000
19     C19     3.8992   -4.5072    4.7238 C.ar     1 ZINC000000895707    0.2100
20     O20     3.3289   -3.6692    3.8264 O.3      1 ZINC000000895707   -0.3000
21     C21     1.3210   -2.6254    2.1528 C.ar     1 ZINC000000895707   -0.0500
22     C22     0.6822   -2.0034    1.0976 C.ar     1 ZINC000000895707   -0.1500
23     H23     1.0053    1.8021    0.0021 H        1 ZINC000000895707    0.0600
24     H24    -0.5445    1.7859   -0.8732 H        1 ZINC000000895707    0.1000
25     H25    -0.5275    1.7763    0.9067 H        1 ZINC000000895707    0.0600
26     H26     1.1564    1.2167    2.0118 H        1 ZINC000000895707    0.1300
27     H27     2.2842    0.1003    3.8934 H        1 ZINC000000895707    0.1300
28     H28     0.9893   -2.1822    5.7243 H        1 ZINC000000895707    0.1100
29     H29     0.8498   -3.7277    4.8417 H        1 ZINC000000895707    0.1200
30     H30     2.8269   -6.2242    8.3382 H        1 ZINC000000895707    0.4000
31     H31     5.5285   -6.9420    7.2589 H        1 ZINC000000895707    0.1500
32     H32     6.3496   -7.7969    4.5159 H        1 ZINC000000895707    0.4000
33     H33     5.3555   -5.2373    3.3397 H        1 ZINC000000895707    0.1500
34     H34     1.3687   -3.7035    2.1948 H        1 ZINC000000895707    0.1400
35     H35     0.2339   -2.5948    0.3129 H        1 ZINC000000895707    0.1400
@<TRIPOS>BOND
1     1     2     1
2     1     23    1
3     1     24    1
4     1     25    1
5     2     3     1
6     3     22    ar
7     3     4     ar
8     4     5     ar
9     4     26    1
10    5     6     ar
11    5     27    1
12    6     7     1
13    6     21    ar
14    7     8     1
15    7     20    1
16    7     9     1
17    9     10    1
18    9     28    1
19    9     29    1
20    10    11    2
21    10    12    1
22    12    19    ar
23    12    13    ar
24    13    14    1
25    13    15    ar
26    14    30    1
27    15    16    ar
28    15    31    1
29    16    17    1
30    16    18    ar
31    17    32    1
32    18    19    ar
33    18    33    1
34    19    20    1
35    21    22    ar
36    21    34    1
37    22    35    1
@<TRIPOS>SUBSTRUCTURE
1   ZINC000000895707 1     RESIDUE    1   A     ZIN   1


@<TRIPOS>MOLECULE
C1C(OC2=CC(=CC(=C2C1=O)O)O)C3=CC=C(C=C3)O
32    34    1     0     0
SMALL
USER_CHARGES
@<TRIPOS>ATOM
1      O1      0.0021   -0.0041    0.0020 O.2      1 ZINC000000001785   -0.4300
2      C2     -0.0144    1.2096    0.0087 C.2      1 ZINC000000001785    0.4000
3      C3     -1.3165    1.9899    0.0318 C.3      1 ZINC000000001785   -0.1900
4      C4     -1.1162    3.1798    0.9816 C.3      1 ZINC000000001785    0.1500
5      H5     -0.8935    2.8122    1.9833 H        1 ZINC000000001785    0.0900
6      C6     -2.3727    4.0109    1.0186 C.ar     1 ZINC000000001785   -0.1000
7      C7     -2.6380    4.9066   -0.0008 C.ar     1 ZINC000000001785   -0.0700
8      C8     -3.7892    5.6696    0.0308 C.ar     1 ZINC000000001785   -0.1500
9      C9     -4.6796    5.5363    1.0863 C.ar     1 ZINC000000001785    0.1200
10     O10    -5.8130    6.2855    1.1194 O.3      1 ZINC000000001785   -0.5000
11     C11    -4.4113    4.6366    2.1076 C.ar     1 ZINC000000001785   -0.1400
12     C12    -3.2611    3.8724    2.0690 C.ar     1 ZINC000000001785   -0.0800
13     O13    -0.0293    3.9789    0.5148 O.3      1 ZINC000000001785   -0.3000
14     C14     1.1574    3.3779    0.2631 C.ar     1 ZINC000000001785    0.2100
15     C15     2.3232    4.1226    0.2665 C.ar     1 ZINC000000001785   -0.2000
16     C16     3.5430    3.5127    0.0014 C.ar     1 ZINC000000001785    0.2000
17     O17     4.6796    4.2536    0.0083 O.3      1 ZINC000000001785   -0.4900
18     C18     3.6111    2.1521   -0.2703 C.ar     1 ZINC000000001785   -0.2200
19     C19     2.4576    1.3878   -0.2759 C.ar     1 ZINC000000001785    0.2200
20     O20     2.5196    0.0595   -0.5418 O.3      1 ZINC000000001785   -0.4800
21     C21     1.2230    1.9976    0.0011 C.ar     1 ZINC000000001785   -0.2900
22     H22    -1.5513    2.3499   -0.9699 H        1 ZINC000000001785    0.1200
23     H23    -2.1234    1.3548    0.3975 H        1 ZINC000000001785    0.1200
24     H24    -1.9445    5.0100   -0.8223 H        1 ZINC000000001785    0.1300
25     H25    -3.9956    6.3696   -0.7654 H        1 ZINC000000001785    0.1300
26     H26    -6.5714    5.8707    0.6861 H        1 ZINC000000001785    0.3900
27     H27    -5.1028    4.5313    2.9306 H        1 ZINC000000001785    0.1300
28     H28    -3.0520    3.1716    2.8637 H        1 ZINC000000001785    0.1300
29     H29     2.2849    5.1815    0.4756 H        1 ZINC000000001785    0.1500
30     H30     5.1127    4.3013    0.8716 H        1 ZINC000000001785    0.4000
31     H31     4.5652    1.6903   -0.4771 H        1 ZINC000000001785    0.1500
32     H32     2.6442   -0.4931    0.2419 H        1 ZINC000000001785    0.4000
@<TRIPOS>BOND
1     1     2     2
2     2     21    1
3     2     3     1
4     3     4     1
5     3     22    1
6     3     23    1
7     4     5     1
8     4     6     1
9     4     13    1
10    6     12    ar
11    6     7     ar
12    7     8     ar
13    7     24    1
14    8     9     ar
15    8     25    1
16    9     10    1
17    9     11    ar
18    10    26    1
19    11    12    ar
20    11    27    1
21    12    28    1
22    13    14    1
23    14    21    ar
24    14    15    ar
25    15    16    ar
26    15    29    1
27    16    17    1
28    16    18    ar
29    17    30    1
30    18    19    ar
31    18    31    1
32    19    20    1
33    19    21    ar
34    20    32    1
@<TRIPOS>SUBSTRUCTURE
1   ZINC000000001785 1     RESIDUE    1   A     ZIN   1


@<TRIPOS>MOLECULE
C1=CC(=CC=C1C2=COC3=C(C2=O)C=CC(=C3)O)O
28    30    1     0     0
SMALL
USER_CHARGES
@<TRIPOS>ATOM
1      O1      0.0021   -0.0041    0.0020 O.2      1 ZINC000018847034   -0.5000
2      C2     -0.0145    1.2148    0.0087 C.2      1 ZINC000018847034    0.4400
3      C3     -1.2747    1.9819    0.0312 C.ar     1 ZINC000018847034   -0.3500
4      C4     -2.5028    1.3693   -0.2144 C.ar     1 ZINC000018847034    0.0000
5      C5     -3.6475    2.1148   -0.1926 C.ar     1 ZINC000018847034   -0.2600
6      C6     -3.5902    3.4813    0.0721 C.ar     1 ZINC000018847034    0.3100
7      O7     -4.7345    4.2114    0.0866 O.3      1 ZINC000018847034   -0.7000
8      C8     -2.3781    4.1024    0.3211 C.ar     1 ZINC000018847034   -0.2900
9      C9     -1.2045    3.3591    0.3074 C.ar     1 ZINC000018847034    0.1700
10     O10    -0.0207    3.9467    0.5636 O.3      1 ZINC000018847034   -0.2300
11     C11     1.1309    3.3433    0.2692 C.2      1 ZINC000018847034    0.1300
12     C12     1.2247    2.0160    0.0012 C.2      1 ZINC000018847034   -0.2700
13     C13     2.5347    1.3894   -0.3013 C.ar     1 ZINC000018847034   -0.0100
14     C14     2.7767    0.8517   -1.5643 C.ar     1 ZINC000018847034   -0.0800
15     C15     3.9958    0.2696   -1.8424 C.ar     1 ZINC000018847034   -0.1400
16     C16     4.9813    0.2190   -0.8662 C.ar     1 ZINC000018847034    0.0900
17     O17     6.1816   -0.3552   -1.1433 O.3      1 ZINC000018847034   -0.5000
18     C18     4.7436    0.7540    0.3924 C.ar     1 ZINC000018847034   -0.1400
19     C19     3.5283    1.3421    0.6751 C.ar     1 ZINC000018847034   -0.1000
20     H20    -2.5490    0.3103   -0.4212 H        1 ZINC000018847034    0.1100
21     H21    -4.6005    1.6431   -0.3816 H        1 ZINC000018847034    0.1100
22     H22    -2.3449    5.1625    0.5249 H        1 ZINC000018847034    0.1200
23     H23     2.0321    3.9380    0.2471 H        1 ZINC000018847034    0.1800
24     H24     2.0102    0.8904   -2.3242 H        1 ZINC000018847034    0.1300
25     H25     4.1838   -0.1475   -2.8208 H        1 ZINC000018847034    0.1300
26     H26     6.8394    0.2594   -1.4964 H        1 ZINC000018847034    0.3900
27     H27     5.5123    0.7131    1.1499 H        1 ZINC000018847034    0.1300
28     H28     3.3441    1.7585    1.6544 H        1 ZINC000018847034    0.1300
@<TRIPOS>BOND
1     1     2     2
2     2     12    1
3     2     3     1
4     3     9     ar
5     3     4     ar
6     4     5     ar
7     4     20    1
8     5     6     ar
9     5     21    1
10    6     7     1
11    6     8     ar
12    8     9     ar
13    8     22    1
14    9     10    1
15    10    11    1
16    11    12    2
17    11    23    1
18    12    13    1
19    13    19    ar
20    13    14    ar
21    14    15    ar
22    14    24    1
23    15    16    ar
24    15    25    1
25    16    17    1
26    16    18    ar
27    17    26    1
28    18    19    ar
29    18    27    1
30    19    28    1
@<TRIPOS>SUBSTRUCTURE
1   ZINC000018847034 1     RESIDUE    1   A     ZIN   1


@<TRIPOS>MOLECULE
C1=CC(=C(C=C1C2=[O+]C3=CC(=CC(=C3C=C2O)O)O)O)O
31    33    1     0     0
SMALL
USER_CHARGES
@<TRIPOS>ATOM
1      O1     -0.0075    0.0133    0.2062 O.2      1 ZINC000003775158   -0.5100
2      C2     -0.0141    1.2207   -0.0056 C.2      1 ZINC000003775158    0.4300
3      C3     -1.2115    1.8944   -0.2503 C.2      1 ZINC000003775158   -0.4100
4      C4     -1.2047    3.2592   -0.4887 C.2      1 ZINC000003775158    0.2800
5      O5     -2.3794    3.8966   -0.7247 O.3      1 ZINC000003775158   -0.4700
6      C6     -0.0244    3.9903   -0.4912 C.2      1 ZINC000003775158   -0.2600
7      C7      1.1926    3.3772   -0.2545 C.2      1 ZINC000003775158    0.1900
8      O8      2.3358    4.0934   -0.2579 O.3      1 ZINC000003775158   -0.1700
9      C9      3.5223    3.5083   -0.0289 C.2      1 ZINC000003775158    0.1600
10     C10     4.7448    4.3267   -0.0413 C.ar     1 ZINC000003775158   -0.0600
11     C11     5.8680    3.8991   -0.7578 C.ar     1 ZINC000003775158   -0.0500
12     C12     7.0117    4.6673   -0.7677 C.ar     1 ZINC000003775158   -0.1300
13     C13     7.0533    5.8659   -0.0682 C.ar     1 ZINC000003775158    0.1100
14     O14     8.1834    6.6189   -0.0817 O.3      1 ZINC000003775158   -0.4800
15     C15     5.9374    6.2991    0.6481 C.ar     1 ZINC000003775158    0.0800
16     O16     5.9824    7.4740    1.3315 O.3      1 ZINC000003775158   -0.4800
17     C17     4.7857    5.5382    0.6591 C.ar     1 ZINC000003775158   -0.0900
18     C18     3.6176    2.1433    0.2202 C.2      1 ZINC000003775158    0.0200
19     O19     4.8308    1.5739    0.4498 O.3      1 ZINC000003775158   -0.4500
20     C20     2.4661    1.3635    0.2339 C.2      1 ZINC000003775158    0.0100
21     C21     1.2337    1.9871   -0.0008 C.2      1 ZINC000003775158   -0.2200
22     H22    -2.1449    1.3509   -0.2544 H        1 ZINC000003775158    0.1400
23     H23    -3.1527    3.3162   -0.7050 H        1 ZINC000003775158    0.4100
24     H24    -0.0569    5.0530   -0.6812 H        1 ZINC000003775158    0.1500
25     H25     5.8387    2.9671   -1.3026 H        1 ZINC000003775158    0.1400
26     H26     7.8782    4.3362   -1.3208 H        1 ZINC000003775158    0.1500
27     H27     8.2173    7.2646   -0.8007 H        1 ZINC000003775158    0.3900
28     H28     5.7022    8.2412    0.8138 H        1 ZINC000003775158    0.3900
29     H29     3.9210    5.8728    1.2130 H        1 ZINC000003775158    0.1400
30     H30     4.7939    0.6214    0.6125 H        1 ZINC000003775158    0.4100
31     H31     2.5203    0.3019    0.4252 H        1 ZINC000003775158    0.1700
@<TRIPOS>BOND
1     1     2     2
2     2     21    1
3     2     3     1
4     3     4     2
5     3     22    1
6     4     5     1
7     4     6     1
8     5     23    1
9     6     7     2
10    6     24    1
11    7     21    1
12    7     8     1
13    8     9     1
14    9     10    1
15    9     18    2
16    10    17    ar
17    10    11    ar
18    11    12    ar
19    11    25    1
20    12    13    ar
21    12    26    1
22    13    14    1
23    13    15    ar
24    14    27    1
25    15    16    1
26    15    17    ar
27    16    28    1
28    17    29    1
29    18    19    1
30    18    20    1
31    19    30    1
32    20    21    2
33    20    31    1
@<TRIPOS>SUBSTRUCTURE
1   ZINC000003775158 1     RESIDUE    1   A     ZIN   1


@<TRIPOS>MOLECULE
C1=CC(=CC=C1C2=COC3=CC(=CC(=C3C2=O)O)O)O
29    31    1     0     0
SMALL
USER_CHARGES
@<TRIPOS>ATOM
1      O1      0.0021   -0.0041    0.0020 O.2      1 ZINC000018825330   -0.4900
2      C2     -0.0145    1.2150    0.0087 C.2      1 ZINC000018825330    0.4400
3      C3     -1.2756    1.9824    0.0312 C.2      1 ZINC000018825330   -0.2700
4      C4     -2.5761    1.3210   -0.2359 C.ar     1 ZINC000018825330   -0.0100
5      C5     -3.0622    0.3553    0.6439 C.ar     1 ZINC000018825330   -0.0800
6      C6     -4.2719   -0.2579    0.3927 C.ar     1 ZINC000018825330   -0.1400
7      C7     -5.0051    0.0858   -0.7347 C.ar     1 ZINC000018825330    0.1000
8      O8     -6.1967   -0.5203   -0.9794 O.3      1 ZINC000018825330   -0.5000
9      C9     -4.5240    1.0474   -1.6125 C.ar     1 ZINC000018825330   -0.1400
10     C10    -3.3175    1.6681   -1.3641 C.ar     1 ZINC000018825330   -0.1000
11     C11    -1.2104    3.3109    0.3038 C.2      1 ZINC000018825330    0.1200
12     O12    -0.0675    3.9448    0.5677 O.3      1 ZINC000018825330   -0.2200
13     C13     1.1242    3.3900    0.2752 C.ar     1 ZINC000018825330    0.1800
14     C14     2.2736    4.1675    0.2464 C.ar     1 ZINC000018825330   -0.2900
15     C15     3.4983    3.5885   -0.0451 C.ar     1 ZINC000018825330    0.3200
16     O16     4.6152    4.3595   -0.0723 O.3      1 ZINC000018825330   -0.6900
17     C17     3.5967    2.2268   -0.3096 C.ar     1 ZINC000018825330   -0.2900
18     C18     2.4638    1.4339   -0.2897 C.ar     1 ZINC000018825330    0.2200
19     O19     2.5547    0.1042   -0.5443 O.3      1 ZINC000018825330   -0.4900
20     C20     1.2225    2.0146    0.0012 C.ar     1 ZINC000018825330   -0.3700
21     H21    -2.4920    0.0872    1.5211 H        1 ZINC000018825330    0.1300
22     H22    -4.6489   -1.0065    1.0738 H        1 ZINC000018825330    0.1300
23     H23    -6.9562   -0.0667   -0.5889 H        1 ZINC000018825330    0.3900
24     H24    -5.0969    1.3130   -2.4886 H        1 ZINC000018825330    0.1300
25     H25    -2.9437    2.4163   -2.0474 H        1 ZINC000018825330    0.1300
26     H26    -2.1277    3.8811    0.3074 H        1 ZINC000018825330    0.1800
27     H27     2.2132    5.2262    0.4513 H        1 ZINC000018825330    0.1200
28     H28     4.5585    1.7882   -0.5310 H        1 ZINC000018825330    0.1200
29     H29     2.7056   -0.4375    0.2424 H        1 ZINC000018825330    0.3900
@<TRIPOS>BOND
1     1     2     2
2     2     20    1
3     2     3     1
4     3     4     1
5     3     11    2
6     4     10    ar
7     4     5     ar
8     5     6     ar
9     5     21    1
10    6     7     ar
11    6     22    1
12    7     8     1
13    7     9     ar
14    8     23    1
15    9     10    ar
16    9     24    1
17    10    25    1
18    11    12    1
19    11    26    1
20    12    13    1
21    13    20    ar
22    13    14    ar
23    14    15    ar
24    14    27    1
25    15    16    1
26    15    17    ar
27    17    18    ar
28    17    28    1
29    18    19    1
30    18    20    ar
31    19    29    1
@<TRIPOS>SUBSTRUCTURE
1   ZINC000018825330 1     RESIDUE    1   A     ZIN   1


@<TRIPOS>MOLECULE
C1C(C(OC2=CC(=CC(=C21)O)O)C3=CC(=C(C=C3)O)O)O
  35   37    0    0    0
SMALL
USER_CHARGES
NO_NAME
@<TRIPOS>ATOM
    1 O1       -0.0164     1.3547     0.0095 O.3    1 <0>      -0.4900
    2 C2        0.0021    -0.0041     0.0020 C.ar   1 <0>       0.1600
    3 C3        0.0058    -0.6918    -1.2020 C.ar   1 <0>      -0.2000
    4 C4        0.0269    -2.0771    -1.2051 C.ar   1 <0>       0.1600
    5 O5        0.0309    -2.7511    -2.3852 O.3    1 <0>      -0.4900
    6 C6        0.0446    -2.7805    -0.0063 C.ar   1 <0>      -0.1900
    7 C7        0.0785    -4.2873    -0.0509 C.3    1 <0>      -0.1000
    8 C8       -0.3431    -4.8530     1.3074 C.3    1 <0>       0.0800
    9 H9       -0.1164    -5.9184     1.3480 H      1 <0>       0.0800
   10 O10      -1.7447    -4.6513     1.4991 O.3    1 <0>      -0.5500
   11 C11       0.4406    -4.1155     2.4006 C.3    1 <0>       0.1500
   12 H12       1.5095    -4.1919     2.2011 H      1 <0>       0.1000
   13 C13       0.1306    -4.7226     3.7447 C.ar   1 <0>      -0.0800
   14 C14      -1.0389    -4.3863     4.3999 C.ar   1 <0>      -0.0600
   15 C15      -1.3278    -4.9403     5.6336 C.ar   1 <0>      -0.1400
   16 C16      -0.4442    -5.8347     6.2151 C.ar   1 <0>       0.0900
   17 O17      -0.7270    -6.3808     7.4281 O.3    1 <0>      -0.4900
   18 C18       0.7334    -6.1737     5.5550 C.ar   1 <0>       0.0800
   19 O19       1.6037    -7.0517     6.1217 O.3    1 <0>      -0.4900
   20 C20       1.0142    -5.6191     4.3171 C.ar   1 <0>      -0.1200
   21 O21       0.0461    -2.7430     2.3894 O.3    1 <0>      -0.2900
   22 C22       0.0364    -2.0947     1.1955 C.ar   1 <0>       0.1800
   23 C23       0.0229    -0.7042     1.1973 C.ar   1 <0>      -0.1800
   24 H24       0.8616     1.7600     0.0033 H      1 <0>       0.4000
   25 H25      -0.0082    -0.1487    -2.1354 H      1 <0>       0.1400
   26 H26       0.9153    -2.9326    -2.7315 H      1 <0>       0.3900
   27 H27      -0.6067    -4.6429    -0.8204 H      1 <0>       0.0900
   28 H28       1.0897    -4.6205    -0.2846 H      1 <0>       0.0900
   29 H29      -2.2985    -5.0773     0.8306 H      1 <0>       0.3800
   30 H30      -1.7286    -3.6891     3.9475 H      1 <0>       0.1400
   31 H31      -2.2420    -4.6753     6.1438 H      1 <0>       0.1400
   32 H32      -1.2246    -7.2085     7.3804 H      1 <0>       0.3900
   33 H33       1.4393    -7.9753     5.8870 H      1 <0>       0.3900
   34 H34       1.9272    -5.8805     3.8028 H      1 <0>       0.1400
   35 H35       0.0241    -0.1677     2.1346 H      1 <0>       0.1400
@<TRIPOS>BOND
   1    1    2 1
   2    1   24 1
   3    2   23 ar
   4    2    3 ar
   5    3    4 ar
   6    3   25 1
   7    4    5 1
   8    4    6 ar
   9    5   26 1
  10    6   22 ar
  11    6    7 1
  12    7    8 1
  13    7   27 1
  14    7   28 1
  15    8    9 1
  16    8   10 1
  17    8   11 1
  18   10   29 1
  19   11   12 1
  20   11   13 1
  21   11   21 1
  22   13   20 ar
  23   13   14 ar
  24   14   15 ar
  25   14   30 1
  26   15   16 ar
  27   15   31 1
  28   16   17 1
  29   16   18 ar
  30   17   32 1
  31   18   19 1
  32   18   20 ar
  33   19   33 1
  34   20   34 1
  35   21   22 1
  36   22   23 ar
  37   23   35 1


@<TRIPOS>MOLECULE
CC(=CCCC(=CCCC(=CCO)C)C)C
42    41    1     0     0
SMALL
USER_CHARGES
@<TRIPOS>ATOM
1      C1      0.0397    1.6867   -0.1819 C.3      1 ZINC000001532860   -0.1200
2      C2      0.0828    0.1829   -0.0927 C.2      1 ZINC000001532860   -0.1300
3      C3      1.4075   -0.5353   -0.1115 C.3      1 ZINC000001532860   -0.1200
4      C4     -1.0312   -0.4999    0.0013 C.2      1 ZINC000001532860   -0.1700
5      C5     -2.3559    0.2183    0.0201 C.3      1 ZINC000001532860   -0.0900
6      C6     -3.2523   -0.3357   -1.0891 C.3      1 ZINC000001532860   -0.0800
7      C7     -4.5770    0.3825   -1.0703 C.2      1 ZINC000001532860   -0.1300
8      C8     -5.6742   -0.0845   -0.1489 C.3      1 ZINC000001532860   -0.1200
9      C9     -4.7747    1.4127   -1.8549 C.2      1 ZINC000001532860   -0.1600
10     C10    -6.0515    2.2063   -1.7493 C.3      1 ZINC000001532860   -0.0900
11     C11    -5.7174    3.6831   -1.5293 C.3      1 ZINC000001532860   -0.0800
12     C12    -6.9943    4.4766   -1.4237 C.2      1 ZINC000001532860   -0.1100
13     C13    -7.6820    4.9671   -2.6717 C.3      1 ZINC000001532860   -0.1300
14     C14    -7.5063    4.7399   -0.2470 C.2      1 ZINC000001532860   -0.1600
15     C15    -8.7831    5.5334   -0.1414 C.3      1 ZINC000001532860    0.1000
16     O16    -9.6555    4.9088    0.8025 O.3      1 ZINC000001532860   -0.5700
17     H17     1.0554    2.0757   -0.2534 H        1 ZINC000001532860    0.0600
18     H18    -0.5256    1.9821   -1.0658 H        1 ZINC000001532860    0.0700
19     H19    -0.4420    2.0898    0.7089 H        1 ZINC000001532860    0.0700
20     H20     1.7752   -0.6463    0.9086 H        1 ZINC000001532860    0.0700
21     H21     1.2805   -1.5201   -0.5611 H        1 ZINC000001532860    0.0600
22     H22     2.1250    0.0410   -0.6956 H        1 ZINC000001532860    0.0600
23     H23    -1.0003   -1.5775    0.0652 H        1 ZINC000001532860    0.1100
24     H24    -2.8376    0.0670    0.9861 H        1 ZINC000001532860    0.0700
25     H25    -2.1938    1.2840   -0.1420 H        1 ZINC000001532860    0.0700
26     H26    -2.7706   -0.1843   -2.0551 H        1 ZINC000001532860    0.0700
27     H27    -3.4144   -1.4013   -0.9270 H        1 ZINC000001532860    0.0700
28     H28    -5.3610   -0.9988    0.3550 H        1 ZINC000001532860    0.0600
29     H29    -5.8787    0.6874    0.5930 H        1 ZINC000001532860    0.0700
30     H30    -6.5766   -0.2798   -0.7282 H        1 ZINC000001532860    0.0700
31     H31    -4.0227    1.6934   -2.5774 H        1 ZINC000001532860    0.1100
32     H32    -6.6246    2.0966   -2.6699 H        1 ZINC000001532860    0.0700
33     H33    -6.6398    1.8378   -0.9089 H        1 ZINC000001532860    0.0700
34     H34    -5.1443    3.7927   -0.6087 H        1 ZINC000001532860    0.0700
35     H35    -5.1291    4.0516   -2.3697 H        1 ZINC000001532860    0.0700
36     H36    -8.3923    4.2148   -3.0147 H        1 ZINC000001532860    0.0700
37     H37    -8.2117    5.8945   -2.4540 H        1 ZINC000001532860    0.0700
38     H38    -6.9393    5.1468   -3.4490 H        1 ZINC000001532860    0.0700
39     H39    -7.0135    4.3884    0.6473 H        1 ZINC000001532860    0.1100
40     H40    -8.5550    6.5465    0.1898 H        1 ZINC000001532860    0.0500
41     H41    -9.2694    5.5708   -1.1162 H        1 ZINC000001532860    0.0600
42     H42   -10.4988    5.3667    0.9216 H        1 ZINC000001532860    0.3800
@<TRIPOS>BOND
1     1     2     1
2     1     17    1
3     1     18    1
4     1     19    1
5     2     3     1
6     2     4     2
7     3     20    1
8     3     21    1
9     3     22    1
10    4     5     1
11    4     23    1
12    5     6     1
13    5     24    1
14    5     25    1
15    6     7     1
16    6     26    1
17    6     27    1
18    7     8     1
19    7     9     2
20    8     28    1
21    8     29    1
22    8     30    1
23    9     10    1
24    9     31    1
25    10    11    1
26    10    32    1
27    10    33    1
28    11    12    1
29    11    34    1
30    11    35    1
31    12    13    1
32    12    14    2
33    13    36    1
34    13    37    1
35    13    38    1
36    14    15    1
37    14    39    1
38    15    16    1
39    15    40    1
40    15    41    1
41    16    42    1
@<TRIPOS>SUBSTRUCTURE
1   ZINC000001532860 1     RESIDUE    1   A     ZIN   1


@<TRIPOS>MOLECULE
CC(=CCCC(=CCCC(C)(C=C)O)C)C
  42   41    0    0    0
SMALL
USER_CHARGES
NO_NAME
@<TRIPOS>ATOM
    1 C1        4.5251     1.3425    -2.8796 C.2    1 <0>      -0.1800
    2 C2        3.7548     1.3788    -1.8206 C.2    1 <0>      -0.1900
    3 C3        2.6078     0.4101    -1.6896 C.3    1 <0>       0.1600
    4 C4        1.2938     1.1867    -1.5839 C.3    1 <0>      -0.1400
    5 O5        2.5681    -0.4392    -2.8382 O.3    1 <0>      -0.5500
    6 C6        2.7999    -0.4408    -0.4326 C.3    1 <0>      -0.1300
    7 C7        1.6355    -1.4243    -0.2996 C.3    1 <0>      -0.0900
    8 C8        1.8247    -2.2623     0.9385 C.2    1 <0>      -0.1700
    9 C9        1.7736    -3.5689     0.8592 C.2    1 <0>      -0.1300
   10 C10       1.3793    -4.2303    -0.4362 C.3    1 <0>      -0.1200
   11 C11       2.1092    -4.4106     2.0634 C.3    1 <0>      -0.0800
   12 C12       0.8224    -4.7704     2.8087 C.3    1 <0>      -0.0900
   13 C13       1.1579    -5.6121     4.0129 C.2    1 <0>      -0.1700
   14 C14       0.8591    -5.1847     5.2146 C.2    1 <0>      -0.1300
   15 C15       0.3114    -3.7937     5.4051 C.3    1 <0>      -0.1200
   16 C16       1.0630    -6.0840     6.4065 C.3    1 <0>      -0.1200
   17 H17       4.3382     0.6184    -3.6587 H      1 <0>       0.1000
   18 H18       5.3443     2.0397    -2.9755 H      1 <0>       0.1000
   19 H19       3.9416     2.1029    -1.0415 H      1 <0>       0.1100
   20 H20       1.1570     1.7928    -2.4794 H      1 <0>       0.0600
   21 H21       0.4643     0.4860    -1.4891 H      1 <0>       0.0700
   22 H22       1.3241     1.8345    -0.7078 H      1 <0>       0.0700
   23 H23       3.3705    -0.9630    -2.9680 H      1 <0>       0.3700
   24 H24       3.7361    -0.9940    -0.5079 H      1 <0>       0.0700
   25 H25       2.8303     0.2070     0.4435 H      1 <0>       0.0700
   26 H26       0.6994    -0.8710    -0.2243 H      1 <0>       0.0700
   27 H27       1.6052    -2.0721    -1.1757 H      1 <0>       0.0800
   28 H28       2.0025    -1.7857     1.8912 H      1 <0>       0.1100
   29 H29       2.2543    -4.3183    -1.0803 H      1 <0>       0.0700
   30 H30       0.9785    -5.2228    -0.2302 H      1 <0>       0.0600
   31 H31       0.6200    -3.6282    -0.9352 H      1 <0>       0.0700
   32 H32       2.6094    -5.3237     1.7405 H      1 <0>       0.0700
   33 H33       2.7684    -3.8501     2.7262 H      1 <0>       0.0700
   34 H34       0.3221    -3.8574     3.1316 H      1 <0>       0.0700
   35 H35       0.1631    -5.3309     2.1459 H      1 <0>       0.0700
   36 H36       1.6447    -6.5676     3.8851 H      1 <0>       0.1100
   37 H37      -0.7661    -3.8018     5.2404 H      1 <0>       0.0700
   38 H38       0.5212    -3.4565     6.4202 H      1 <0>       0.0600
   39 H39       0.7829    -3.1169     4.6926 H      1 <0>       0.0700
   40 H40       1.4632    -7.0420     6.0746 H      1 <0>       0.0600
   41 H41       1.7645    -5.6172     7.0981 H      1 <0>       0.0600
   42 H42       0.1090    -6.2432     6.9091 H      1 <0>       0.0700
@<TRIPOS>BOND
   1    1    2 2
   2    1   17 1
   3    1   18 1
   4    2    3 1
   5    2   19 1
   6    3    4 1
   7    3    5 1
   8    3    6 1
   9    4   20 1
  10    4   21 1
  11    4   22 1
  12    5   23 1
  13    6    7 1
  14    6   24 1
  15    6   25 1
  16    7    8 1
  17    7   26 1
  18    7   27 1
  19    8    9 2
  20    8   28 1
  21    9   10 1
  22    9   11 1
  23   10   29 1
  24   10   30 1
  25   10   31 1
  26   11   12 1
  27   11   32 1
  28   11   33 1
  29   12   13 1
  30   12   34 1
  31   12   35 1
  32   13   14 2
  33   13   36 1
  34   14   15 1
  35   14   16 1
  36   15   37 1
  37   15   38 1
  38   15   39 1
  39   16   40 1
  40   16   41 1
  41   16   42 1


@<TRIPOS>MOLECULE
CC1(CC2C1CCC3(C(O3)CCC2=C)C)C
40    42    1     0     0
SMALL
USER_CHARGES
@<TRIPOS>ATOM
1      C1     -0.0157    1.3058    0.0092 C.2      1 ZINC000002039864   -0.1900
2      C2      0.0021   -0.0041    0.0020 C.2      1 ZINC000002039864   -0.0900
3      C3     -1.2768   -0.7768    0.0039 C.3      1 ZINC000002039864   -0.0800
4      C4     -1.3588   -1.6200   -1.2875 C.3      1 ZINC000002039864   -0.1100
5      C5     -0.9203   -0.7199   -2.4606 C.3      1 ZINC000002039864   -0.0100
6      H6     -1.3023    0.3010   -2.4542 H        1 ZINC000002039864    0.1200
7      O7     -0.8162   -1.4154   -3.7175 O.3      1 ZINC000002039864   -0.3600
8      C8      0.4443   -1.0001   -3.1623 C.3      1 ZINC000002039864    0.0300
9      C9      1.1486    0.1834   -3.8288 C.3      1 ZINC000002039864   -0.1300
10     C10     1.3798   -2.0275   -2.5055 C.3      1 ZINC000002039864   -0.1000
11     C11     2.6268   -1.2705   -2.0189 C.3      1 ZINC000002039864   -0.1200
12     C12     2.3719   -0.2865   -0.9213 C.3      1 ZINC000002039864   -0.0800
13     H13     2.1969    0.7135   -1.3182 H        1 ZINC000002039864    0.0800
14     C14     1.2837   -0.7317   -0.0141 C.3      1 ZINC000002039864   -0.0800
15     H15     1.1070   -1.7960   -0.1699 H        1 ZINC000002039864    0.0800
16     C16     2.1949   -0.5591    1.1917 C.3      1 ZINC000002039864   -0.1200
17     C17     3.3437   -0.2643    0.2523 C.3      1 ZINC000002039864   -0.0800
18     C18     4.3854   -1.3839    0.2036 C.3      1 ZINC000002039864   -0.1300
19     C19     3.9701    1.1130    0.4791 C.3      1 ZINC000002039864   -0.1300
20     H20     0.9122    1.8585    0.0033 H        1 ZINC000002039864    0.1000
21     H21    -0.9582    1.8330    0.0166 H        1 ZINC000002039864    0.1000
22     H22    -1.3033   -1.4357    0.8718 H        1 ZINC000002039864    0.0800
23     H23    -2.1197   -0.0867    0.0428 H        1 ZINC000002039864    0.0700
24     H24    -0.6922   -2.4790   -1.2112 H        1 ZINC000002039864    0.0800
25     H25    -2.3831   -1.9584   -1.4438 H        1 ZINC000002039864    0.0800
26     H26     0.4819    0.6367   -4.5624 H        1 ZINC000002039864    0.0600
27     H27     1.4124    0.9223   -3.0721 H        1 ZINC000002039864    0.0800
28     H28     2.0532   -0.1656   -4.3267 H        1 ZINC000002039864    0.0700
29     H29     0.8782   -2.4974   -1.6595 H        1 ZINC000002039864    0.0800
30     H30     1.6675   -2.7854   -3.2341 H        1 ZINC000002039864    0.0800
31     H31     3.3566   -1.9992   -1.6660 H        1 ZINC000002039864    0.0700
32     H32     3.0591   -0.7378   -2.8659 H        1 ZINC000002039864    0.0700
33     H33     1.9180    0.2853    1.8230 H        1 ZINC000002039864    0.0800
34     H34     2.3372   -1.4790    1.7588 H        1 ZINC000002039864    0.0700
35     H35     3.8809   -2.3501    0.2096 H        1 ZINC000002039864    0.0600
36     H36     4.9782   -1.2892   -0.7062 H        1 ZINC000002039864    0.0600
37     H37     5.0391   -1.3099    1.0726 H        1 ZINC000002039864    0.0600
38     H38     4.6434    1.0694    1.3352 H        1 ZINC000002039864    0.0600
39     H39     4.5295    1.4084   -0.4085 H        1 ZINC000002039864    0.0600
40     H40     3.1836    1.8425    0.6723 H        1 ZINC000002039864    0.0600
@<TRIPOS>BOND
1     1     2     2
2     1     20    1
3     1     21    1
4     2     14    1
5     2     3     1
6     3     4     1
7     3     22    1
8     3     23    1
9     4     5     1
10    4     24    1
11    4     25    1
12    5     6     1
13    5     8     1
14    5     7     1
15    7     8     1
16    8     9     1
17    8     10    1
18    9     26    1
19    9     27    1
20    9     28    1
21    10    11    1
22    10    29    1
23    10    30    1
24    11    12    1
25    11    31    1
26    11    32    1
27    12    13    1
28    12    17    1
29    12    14    1
30    14    15    1
31    14    16    1
32    16    17    1
33    16    33    1
34    16    34    1
35    17    18    1
36    17    19    1
37    18    35    1
38    18    36    1
39    18    37    1
40    19    38    1
41    19    39    1
42    19    40    1
@<TRIPOS>SUBSTRUCTURE
1   ZINC000002039864 1     RESIDUE    1   A     ZIN   1


@<TRIPOS>MOLECULE
C1COCCN1C2=NC(=NC(=C2)C3=CN=C(C=C3C(F)(F)F)N)N4CCOCC4
50    53    1     0     0
SMALL
USER_CHARGES
@<TRIPOS>ATOM
1      N1     -0.0167    1.3835    0.0096 N.pl3    1 ZINC000043154039   -0.8400
2      C2      0.0021   -0.0041    0.0020 C.ar     1 ZINC000043154039    0.4300
3      C3     -1.1996   -0.7076    0.0039 C.ar     1 ZINC000043154039   -0.2000
4      C4     -1.1727   -2.0877   -0.0042 C.ar     1 ZINC000043154039   -0.0500
5      C5     -2.4518   -2.8845   -0.0029 C.3      1 ZINC000043154039    0.5200
6      F6     -3.5450   -2.0116    0.0071 F        1 ZINC000043154039   -0.1800
7      F7     -2.5041   -3.6842   -1.1496 F        1 ZINC000043154039   -0.1600
8      F8     -2.4937   -3.6974    1.1349 F        1 ZINC000043154039   -0.1600
9      C9      0.0718   -2.7294   -0.0140 C.ar     1 ZINC000043154039   -0.1300
10     C10     0.1540   -4.2093   -0.0235 C.ar     1 ZINC000043154039    0.2600
11     C11     1.3921   -4.8480   -0.0275 C.ar     1 ZINC000043154039   -0.2600
12     C12     1.4185   -6.2417   -0.0365 C.ar     1 ZINC000043154039    0.3900
13     N13     2.6265   -6.9210   -0.0403 N.3      1 ZINC000043154039   -0.4700
14     C14     3.4589   -6.5093   -1.1801 C.3      1 ZINC000043154039    0.0200
15     C15     4.8037   -7.2377   -1.1124 C.3      1 ZINC000043154039    0.0600
16     O16     4.5751   -8.6493   -1.0909 O.3      1 ZINC000043154039   -0.3800
17     C17     3.7684   -9.0852    0.0066 C.3      1 ZINC000043154039    0.0600
18     C18     2.4130   -8.3755   -0.0497 C.3      1 ZINC000043154039    0.0300
19     N19     0.2692   -6.9108   -0.0408 N.ar     1 ZINC000043154039   -0.5700
20     C20    -0.8904   -6.2700   -0.0367 C.ar     1 ZINC000043154039    0.5400
21     N21    -2.0646   -7.0027   -0.0415 N.3      1 ZINC000043154039   -0.4600
22     C22    -2.1091   -7.9192   -1.1901 C.3      1 ZINC000043154039    0.0300
23     C23    -3.3933   -8.7501   -1.1236 C.3      1 ZINC000043154039    0.0600
24     O24    -4.5217   -7.8723   -1.0874 O.3      1 ZINC000043154039   -0.3800
25     C25    -4.5110   -6.9662    0.0190 C.3      1 ZINC000043154039    0.0600
26     C26    -3.2382   -6.1172   -0.0358 C.3      1 ZINC000043154039    0.0100
27     N27    -0.9563   -4.9483   -0.0227 N.ar     1 ZINC000043154039   -0.5700
28     C28     1.2313   -1.9578   -0.0153 C.ar     1 ZINC000043154039    0.2000
29     N29     1.1633   -0.6422   -0.0125 N.ar     1 ZINC000043154039   -0.5200
30     H30     0.8166    1.8799    0.0044 H        1 ZINC000043154039    0.4100
31     H31    -0.8633    1.8570    0.0162 H        1 ZINC000043154039    0.4100
32     H32    -2.1417   -0.1797    0.0120 H        1 ZINC000043154039    0.1500
33     H33     2.3090   -4.2773   -0.0242 H        1 ZINC000043154039    0.1500
34     H34     2.9530   -6.7647   -2.1112 H        1 ZINC000043154039    0.0600
35     H35     3.6255   -5.4328   -1.1390 H        1 ZINC000043154039    0.1000
36     H36     5.4021   -6.9791   -1.9860 H        1 ZINC000043154039    0.1100
37     H37     5.3332   -6.9409   -0.2070 H        1 ZINC000043154039    0.0700
38     H38     3.6179  -10.1628   -0.0577 H        1 ZINC000043154039    0.1100
39     H39     4.2678   -8.8422    0.9445 H        1 ZINC000043154039    0.0600
40     H40     1.8162   -8.6613    0.8164 H        1 ZINC000043154039    0.1000
41     H41     1.8905   -8.6607   -0.9628 H        1 ZINC000043154039    0.0600
42     H42    -2.0954   -7.3437   -2.1157 H        1 ZINC000043154039    0.0500
43     H43    -1.2445   -8.5824   -1.1602 H        1 ZINC000043154039    0.1000
44     H44    -3.4583   -9.3904   -2.0033 H        1 ZINC000043154039    0.1100
45     H45    -3.3822   -9.3659   -0.2244 H        1 ZINC000043154039    0.0600
46     H46    -5.3845   -6.3163   -0.0342 H        1 ZINC000043154039    0.1100
47     H47    -4.5324   -7.5301    0.9515 H        1 ZINC000043154039    0.0600
48     H48    -3.1978   -5.4650    0.8366 H        1 ZINC000043154039    0.1100
49     H49    -3.2425   -5.5129   -0.9430 H        1 ZINC000043154039    0.0800
50     H50     2.1962   -2.4431   -0.0226 H        1 ZINC000043154039    0.1700
@<TRIPOS>BOND
1     1     2     1
2     1     30    1
3     1     31    1
4     2     29    ar
5     2     3     ar
6     3     4     ar
7     3     32    1
8     4     5     1
9     4     9     ar
10    5     6     1
11    5     7     1
12    5     8     1
13    9     10    1
14    9     28    ar
15    10    27    ar
16    10    11    ar
17    11    12    ar
18    11    33    1
19    12    13    1
20    12    19    ar
21    13    18    1
22    13    14    1
23    14    15    1
24    14    34    1
25    14    35    1
26    15    16    1
27    15    36    1
28    15    37    1
29    16    17    1
30    17    18    1
31    17    38    1
32    17    39    1
33    18    40    1
34    18    41    1
35    19    20    ar
36    20    21    1
37    20    27    ar
38    21    26    1
39    21    22    1
40    22    23    1
41    22    42    1
42    22    43    1
43    23    24    1
44    23    44    1
45    23    45    1
46    24    25    1
47    25    26    1
48    25    46    1
49    25    47    1
50    26    48    1
51    26    49    1
52    28    29    ar
53    28    50    1
@<TRIPOS>SUBSTRUCTURE
1   ZINC000043154039 1     RESIDUE    1   A     ZIN   1


@<TRIPOS>MOLECULE
C1=CC(=C(C=C1C2=C(C(=O)C3=C(C=C(C=C3O2)O)O)O)O)O
  31   33    0    0    0
SMALL
USER_CHARGES
NO_NAME
@<TRIPOS>ATOM
    1 O1       -0.9038     1.1636    -0.0631 O.2    1 <0>      -0.5400
    2 C2       -0.5695     2.3377    -0.0199 C.2    1 <0>       0.4200
    3 C3       -1.5293     3.3587     0.0376 C.2    1 <0>      -0.4900
    4 C4       -1.1408     4.6800     0.0810 C.2    1 <0>       0.3200
    5 O5       -2.0957     5.6392     0.1448 O.3    1 <0>      -0.6800
    6 C6        0.2045     5.0679     0.0621 C.2    1 <0>      -0.1500
    7 C7        1.2046     4.1451     0.0031 C.2    1 <0>       0.1000
    8 O8        2.4995     4.5373    -0.0408 O.3    1 <0>      -0.2900
    9 C9        3.4781     3.6588     0.5261 C.3    1 <0>       0.1100
   10 C10       3.3163     3.6169     2.0238 C.ar   1 <0>      -0.1200
   11 C11       4.2964     3.0373     2.8072 C.ar   1 <0>      -0.1000
   12 C12       4.1524     2.9959     4.1819 C.ar   1 <0>      -0.1300
   13 C13       3.0242     3.5366     4.7767 C.ar   1 <0>       0.0900
   14 O14       2.8813     3.4971     6.1286 O.3    1 <0>      -0.4900
   15 C15       2.0374     4.1207     3.9878 C.ar   1 <0>       0.0900
   16 O16       0.9282     4.6533     4.5671 O.3    1 <0>      -0.4800
   17 C17       2.1903     4.1635     2.6116 C.ar   1 <0>      -0.1100
   18 C18       3.2635     2.2729    -0.0502 C.2    1 <0>       0.3500
   19 O19       4.1810     1.6140    -0.4787 O.2    1 <0>      -0.4200
   20 C20       1.8587     1.7638    -0.0605 C.2    1 <0>       0.0800
   21 O21       1.5820     0.4464    -0.1010 O.3    1 <0>      -0.4100
   22 C22       0.8543     2.7208    -0.0203 C.2    1 <0>      -0.1600
   23 H23      -2.5797     3.1077     0.0475 H      1 <0>       0.1100
   24 H24       0.4538     6.1183     0.0946 H      1 <0>       0.1300
   25 H25       4.4783     4.0113     0.2743 H      1 <0>       0.1600
   26 H26       5.1764     2.6154     2.3447 H      1 <0>       0.1300
   27 H27       4.9194     2.5418     4.7918 H      1 <0>       0.1400
   28 H28       3.2488     4.2661     6.5855 H      1 <0>       0.3900
   29 H29       1.0165     5.5875     4.8006 H      1 <0>       0.3900
   30 H30       1.4261     4.6161     1.9972 H      1 <0>       0.1600
   31 H31       2.3350    -0.1599    -0.1234 H      1 <0>       0.4000
@<TRIPOS>BOND
   1    1    2 2
   2    2   22 1
   3    2    3 1
   4    3    4 2
   5    3   23 1
   6    4    5 1
   7    4    6 1
   8    6    7 2
   9    6   24 1
  10    7   22 1
  11    7    8 1
  12    8    9 1
  13    9   10 1
  14    9   18 1
  15    9   25 1
  16   10   17 ar
  17   10   11 ar
  18   11   12 ar
  19   11   26 1
  20   12   13 ar
  21   12   27 1
  22   13   14 1
  23   13   15 ar
  24   14   28 1
  25   15   16 1
  26   15   17 ar
  27   16   29 1
  28   17   30 1
  29   18   19 2
  30   18   20 1
  31   20   21 1
  32   20   22 2
  33   21   31 1


@<TRIPOS>MOLECULE
CC1=CC(=O)C2=CC=CC=C2C1=O
21    22    1     0     0
SMALL
USER_CHARGES
@<TRIPOS>ATOM
1      C1     -0.0184    1.5028    0.0103 C.3      1 ZINC000000001677   -0.1200
2      C2      0.0021   -0.0041    0.0020 C.2      1 ZINC000000001677   -0.1100
3      C3      0.0056   -0.6639   -1.1662 C.2      1 ZINC000000001677   -0.1500
4      C4      0.0258   -2.1408   -1.1920 C.2      1 ZINC000000001677    0.4200
5      O5      0.2756   -2.7341   -2.2223 O.2      1 ZINC000000001677   -0.4200
6      C6     -0.2613   -2.8890    0.0519 C.ar     1 ZINC000000001677   -0.1300
7      C7     -0.5255   -4.2516    0.0276 C.ar     1 ZINC000000001677   -0.0700
8      C8     -0.7905   -4.9213    1.2133 C.ar     1 ZINC000000001677   -0.1000
9      C9     -0.7932   -4.2422    2.4160 C.ar     1 ZINC000000001677   -0.1000
10     C10    -0.5313   -2.8805    2.4560 C.ar     1 ZINC000000001677   -0.0700
11     C11    -0.2645   -2.1969    1.2776 C.ar     1 ZINC000000001677   -0.1300
12     C12     0.0243   -0.7444    1.2802 C.2      1 ZINC000000001677    0.4200
13     O13     0.2720   -0.1690    2.3211 O.2      1 ZINC000000001677   -0.4200
14     H14     1.0042    1.8801    0.0026 H        1 ZINC000000001677    0.0900
15     H15    -0.5455    1.8639   -0.8728 H        1 ZINC000000001677    0.0800
16     H16    -0.5286    1.8543    0.9071 H        1 ZINC000000001677    0.0800
17     H17    -0.0068   -0.1114   -2.0942 H        1 ZINC000000001677    0.1600
18     H18    -0.5244   -4.7879   -0.9098 H        1 ZINC000000001677    0.1400
19     H19    -0.9965   -5.9813    1.1957 H        1 ZINC000000001677    0.1400
20     H20    -1.0012   -4.7752    3.3320 H        1 ZINC000000001677    0.1400
21     H21    -0.5353   -2.3547    3.3993 H        1 ZINC000000001677    0.1400
@<TRIPOS>BOND
1     1     2     1
2     1     14    1
3     1     15    1
4     1     16    1
5     2     12    1
6     2     3     2
7     3     4     1
8     3     17    1
9     4     5     2
10    4     6     1
11    6     11    ar
12    6     7     ar
13    7     8     ar
14    7     18    1
15    8     9     ar
16    8     19    1
17    9     10    ar
18    9     20    1
19    10    11    ar
20    10    21    1
21    11    12    1
22    12    13    2
@<TRIPOS>SUBSTRUCTURE
1   ZINC000000001677 1     RESIDUE    1   A     ZIN   1


@<TRIPOS>MOLECULE
CC(C)(C)N1C2=NC=NC(=C2C(=N1)C3=CC(=CC=C3)O)N
  38   40    0    0    0
SMALL
USER_CHARGES
NO_NAME
@<TRIPOS>ATOM
    1 C1       -0.1087     0.8467     0.4039 C.3    1 <0>      -0.1600
    2 C2        0.3670    -0.6071     0.3739 C.3    1 <0>       0.1900
    3 C3        1.4267    -0.8194     1.4569 C.3    1 <0>      -0.1600
    4 C4       -0.8198    -1.5375     0.6322 C.3    1 <0>      -0.1400
    5 N5        0.9443    -0.9051    -0.9392 N.pl3  1 <0>      -0.3700
    6 N6        0.4786    -1.8840    -1.8234 N.2    1 <0>      -0.2300
    7 C7        1.2159    -1.8921    -2.9086 C.2    1 <0>       0.1600
    8 C8        1.0434    -2.7834    -4.0807 C.ar   1 <0>       0.0000
    9 C9        2.1509    -3.4052    -4.6552 C.ar   1 <0>      -0.1200
   10 C10       1.9875    -4.2347    -5.7465 C.ar   1 <0>      -0.1000
   11 C11       0.7278    -4.4512    -6.2725 C.ar   1 <0>      -0.1300
   12 C12      -0.3806    -3.8355    -5.7067 C.ar   1 <0>       0.1100
   13 O13      -1.6172    -4.0511    -6.2275 O.3    1 <0>      -0.5000
   14 C14      -0.2270    -3.0067    -4.6079 C.ar   1 <0>      -0.1100
   15 C15       2.2391    -0.8591    -2.7490 C.ar   1 <0>      -0.3200
   16 C16       3.3013    -0.3834    -3.5350 C.ar   1 <0>       0.5200
   17 N17       3.5603    -0.9263    -4.7788 N.pl3  1 <0>      -0.8300
   18 N18       4.0512     0.6027    -3.0524 N.ar   1 <0>      -0.6100
   19 C19       3.8079     1.1259    -1.8640 C.ar   1 <0>       0.3800
   20 N20       2.8256     0.7127    -1.0935 N.ar   1 <0>      -0.5700
   21 C21       2.0151    -0.2675    -1.4916 C.ar   1 <0>       0.3800
   22 H22       0.7368     1.5095     0.2198 H      1 <0>       0.0800
   23 H23      -0.8636     0.9979    -0.3677 H      1 <0>       0.0600
   24 H24      -0.5382     1.0684     1.3808 H      1 <0>       0.0800
   25 H25       0.9971    -0.5978     2.4339 H      1 <0>       0.0800
   26 H26       1.7656    -1.8552     1.4356 H      1 <0>       0.0600
   27 H27       2.2722    -0.1566     1.2729 H      1 <0>       0.0800
   28 H28      -1.5747    -1.3863    -0.1394 H      1 <0>       0.0700
   29 H29      -0.4809    -2.5733     0.6109 H      1 <0>       0.0700
   30 H30      -1.2493    -1.3159     1.6092 H      1 <0>       0.0800
   31 H31       3.1366    -3.2378    -4.2468 H      1 <0>       0.1300
   32 H32       2.8465    -4.7155    -6.1909 H      1 <0>       0.1400
   33 H33       0.6053    -5.1011    -7.1264 H      1 <0>       0.1400
   34 H34      -2.0825    -4.8037    -5.8375 H      1 <0>       0.4000
   35 H35      -1.0883    -2.5274    -4.1665 H      1 <0>       0.1400
   36 H36       2.8895    -1.4712    -5.2193 H      1 <0>       0.4100
   37 H37       4.4128    -0.7625    -5.2115 H      1 <0>       0.4100
   38 H38       4.4420     1.9255    -1.5106 H      1 <0>       0.2000
@<TRIPOS>BOND
   1    1    2 1
   2    1   22 1
   3    1   23 1
   4    1   24 1
   5    2    3 1
   6    2    4 1
   7    2    5 1
   8    3   25 1
   9    3   26 1
  10    3   27 1
  11    4   28 1
  12    4   29 1
  13    4   30 1
  14    5   21 1
  15    5    6 1
  16    6    7 2
  17    7    8 1
  18    7   15 1
  19    8   14 ar
  20    8    9 ar
  21    9   10 ar
  22    9   31 1
  23   10   11 ar
  24   10   32 1
  25   11   12 ar
  26   11   33 1
  27   12   13 1
  28   12   14 ar
  29   13   34 1
  30   14   35 1
  31   15   21 ar
  32   15   16 ar
  33   16   17 1
  34   16   18 ar
  35   17   36 1
  36   17   37 1
  37   18   19 ar
  38   19   20 ar
  39   19   38 1
  40   20   21 ar


@<TRIPOS>MOLECULE
CC(C)N1C2=NC=NC(NC)=C2C(C3=CC(O)=CC=C3)=C1
  39   41    0    0    0
SMALL
USER_CHARGES
NO_NAME
@<TRIPOS>ATOM
    1 C1       -0.0178     1.4608     0.0101 C.3    1 <0>       0.0900
    2 N2        0.0021    -0.0041     0.0020 N.pl3  1 <0>      -0.7100
    3 C3       -1.1865    -0.7121     0.0096 C.ar   1 <0>       0.4900
    4 C4       -1.1877    -2.1131     0.0079 C.ar   1 <0>      -0.2500
    5 C5       -0.1516    -3.1537    -0.0007 C.2    1 <0>      -0.1100
    6 C6        1.3159    -2.9441    -0.0100 C.ar   1 <0>       0.0100
    7 C7        1.8918    -2.0718    -0.9326 C.ar   1 <0>      -0.1400
    8 C8        3.2587    -1.8784    -0.9392 C.ar   1 <0>      -0.0900
    9 C9        4.0596    -2.5476    -0.0329 C.ar   1 <0>      -0.1500
   10 C10       3.4942    -3.4184     0.8891 C.ar   1 <0>       0.1100
   11 O11       4.2858    -4.0744     1.7779 O.3    1 <0>      -0.5000
   12 C12       2.1234    -3.6139     0.9072 C.ar   1 <0>      -0.1400
   13 C13      -0.8010    -4.3440     0.0025 C.2    1 <0>       0.0700
   14 N14      -2.1521    -4.1305     0.0122 N.pl3  1 <0>      -0.4500
   15 C15      -3.1666    -5.1873     0.0181 C.3    1 <0>       0.1300
   16 C16      -3.0087    -6.0528    -1.2337 C.3    1 <0>      -0.1600
   17 C17      -2.9904    -6.0566     1.2647 C.3    1 <0>      -0.1600
   18 C18      -2.4207    -2.7883     0.0157 C.ar   1 <0>       0.3500
   19 N19      -3.5408    -2.0668     0.0245 N.ar   1 <0>      -0.5700
   20 C20      -3.4932    -0.7521     0.0258 C.ar   1 <0>       0.3600
   21 N21      -2.3567    -0.0795     0.0241 N.ar   1 <0>      -0.6000
   22 H22       1.0048     1.8381     0.0023 H      1 <0>       0.0700
   23 H23      -0.5450     1.8219    -0.8730 H      1 <0>       0.0600
   24 H24      -0.5280     1.8123     0.9069 H      1 <0>       0.0600
   25 H25       0.8486    -0.4776    -0.0086 H      1 <0>       0.4100
   26 H26       1.2688    -1.5477    -1.6423 H      1 <0>       0.1300
   27 H27       3.7035    -1.2027    -1.6546 H      1 <0>       0.1300
   28 H28       5.1284    -2.3928    -0.0421 H      1 <0>       0.1300
   29 H29       4.4234    -3.5982     2.6082 H      1 <0>       0.3900
   30 H30       1.6824    -4.2907     1.6240 H      1 <0>       0.1300
   31 H31      -0.3242    -5.3130    -0.0024 H      1 <0>       0.1800
   32 H32      -4.1596    -4.7377     0.0260 H      1 <0>       0.1100
   33 H33      -3.7635    -6.8391    -1.2293 H      1 <0>       0.0800
   34 H34      -3.1343    -5.4335    -2.1218 H      1 <0>       0.0600
   35 H35      -2.0158    -6.5024    -1.2417 H      1 <0>       0.0600
   36 H36      -3.1029    -5.4400     2.1565 H      1 <0>       0.0600
   37 H37      -3.7452    -6.8429     1.2691 H      1 <0>       0.0800
   38 H38      -1.9974    -6.5062     1.2568 H      1 <0>       0.0600
   39 H39      -4.4216    -0.2003     0.0330 H      1 <0>       0.2000
@<TRIPOS>BOND
   1    1    2 1
   2    1   22 1
   3    1   23 1
   4    1   24 1
   5    2    3 1
   6    2   25 1
   7    3   21 ar
   8    3    4 ar
   9    4   18 ar
  10    4    5 1
  11    5    6 1
  12    5   13 2
  13    6   12 ar
  14    6    7 ar
  15    7    8 ar
  16    7   26 1
  17    8    9 ar
  18    8   27 1
  19    9   10 ar
  20    9   28 1
  21   10   11 1
  22   10   12 ar
  23   11   29 1
  24   12   30 1
  25   13   14 1
  26   13   31 1
  27   14   15 1
  28   14   18 1
  29   15   16 1
  30   15   17 1
  31   15   32 1
  32   16   33 1
  33   16   34 1
  34   16   35 1
  35   17   36 1
  36   17   37 1
  37   17   38 1
  38   18   19 ar
  39   19   20 ar
  40   20   21 ar
  41   20   39 1


@<TRIPOS>MOLECULE
COC(=O)NCCC1=C2C(=O)C=C(C(=O)C2=NN1)Cl
  29   30    0    0    0
SMALL
USER_CHARGES
NO_NAME
@<TRIPOS>ATOM
    1 C1       -0.0176     1.4478     0.0100 C.3    1 <0>       0.0600
    2 O2        0.0021    -0.0041     0.0020 O.3    1 <0>      -0.3700
    3 C3        0.6002    -0.6015    -1.0459 C.2    1 <0>       0.6500
    4 O4        1.0922     0.0719    -1.9296 O.2    1 <0>      -0.5700
    5 N5        0.6531    -1.9465    -1.1147 N.am   1 <0>      -0.7100
    6 C6        1.3039    -2.5965    -2.2549 C.3    1 <0>       0.1400
    7 C7        1.2259    -4.1155    -2.0887 C.3    1 <0>      -0.0700
    8 C8        1.8954    -4.7842    -3.2616 C.2    1 <0>       0.1300
    9 C9        3.2195    -5.0542    -3.3945 C.2    1 <0>      -0.2700
   10 C10       3.3399    -5.7106    -4.7193 C.2    1 <0>       0.0000
   11 N11       2.1420    -5.7592    -5.2077 N.2    1 <0>      -0.1900
   12 N12       1.2926    -5.2387    -4.3872 N.pl3  1 <0>      -0.3900
   13 C13       4.6687    -6.1459    -5.1944 C.2    1 <0>       0.4800
   14 O14       4.8454    -6.5282    -6.3347 O.2    1 <0>      -0.3800
   15 C15       5.7771    -6.0926    -4.2098 C.2    1 <0>      -0.0600
   16 Cl16      7.2917    -6.8318    -4.6259 Cl     1 <0>      -0.0100
   17 C17       5.6619    -5.4997    -3.0152 C.2    1 <0>      -0.1200
   18 C18       4.4140    -4.8410    -2.5642 C.2    1 <0>       0.4700
   19 O19       4.3794    -4.1580    -1.5584 O.2    1 <0>      -0.4100
   20 H20       1.0050     1.8251     0.0023 H      1 <0>       0.0700
   21 H21      -0.5448     1.8089    -0.8731 H      1 <0>       0.0600
   22 H22      -0.5278     1.7993     0.9068 H      1 <0>       0.1100
   23 H23       0.2603    -2.4840    -0.4093 H      1 <0>       0.4100
   24 H24       0.7989    -2.3054    -3.1760 H      1 <0>       0.0800
   25 H25       2.3487    -2.2892    -2.3006 H      1 <0>       0.0800
   26 H26       1.7309    -4.4066    -1.1677 H      1 <0>       0.1200
   27 H27       0.1811    -4.4228    -2.0430 H      1 <0>       0.1000
   28 H28       0.3399    -5.1743    -4.5582 H      1 <0>       0.4600
   29 H29       6.5144    -5.5022    -2.3521 H      1 <0>       0.1700
@<TRIPOS>BOND
   1    1    2 1
   2    1   20 1
   3    1   21 1
   4    1   22 1
   5    2    3 1
   6    3    4 2
   7    3    5 am
   8    5    6 1
   9    5   23 1
  10    6    7 1
  11    6   24 1
  12    6   25 1
  13    7    8 1
  14    7   26 1
  15    7   27 1
  16    8   12 1
  17    8    9 2
  18    9   18 1
  19    9   10 1
  20   10   11 2
  21   10   13 1
  22   11   12 1
  23   12   28 1
  24   13   14 2
  25   13   15 1
  26   15   16 1
  27   15   17 2
  28   17   18 1
  29   17   29 1
  30   18   19 2


@<TRIPOS>MOLECULE
COC(=O)NCCC1=C2C(=O)C=C(C(=O)C2=NN1)NC3=CC=CC=C3
  41   43    0    0    0
SMALL
USER_CHARGES
NO_NAME
@<TRIPOS>ATOM
    1 C1       -1.1090     1.7372     1.1246 C.3    1 <0>       0.0600
    2 O2       -1.0567     0.2867     1.1656 O.3    1 <0>      -0.3700
    3 C3       -2.2111    -0.3728     0.9532 C.2    1 <0>       0.6500
    4 O4       -3.2343     0.2467     0.7394 O.2    1 <0>      -0.5700
    5 N5       -2.2318    -1.7202     0.9777 N.am   1 <0>      -0.7100
    6 C6       -3.4879    -2.4378     0.7465 C.3    1 <0>       0.1400
    7 C7       -3.2366    -3.9449     0.8277 C.3    1 <0>      -0.0700
    8 C8       -4.5288    -4.6831     0.5899 C.2    1 <0>       0.1200
    9 C9       -5.0518    -5.0211    -0.6038 C.2    1 <0>      -0.2600
   10 C10      -6.3169    -5.7240    -0.2799 C.2    1 <0>       0.0000
   11 N11      -6.4064    -5.7284     1.0123 N.2    1 <0>      -0.1900
   12 N12      -5.3845    -5.1394     1.5370 N.pl3  1 <0>      -0.4000
   13 C13      -7.1615    -6.2401    -1.3750 C.2    1 <0>       0.4600
   14 O14      -8.2812    -6.6663    -1.1723 O.2    1 <0>      -0.3900
   15 C15      -6.5696    -6.2107    -2.7417 C.2    1 <0>       0.1500
   16 N16      -7.2266    -6.8664    -3.7609 N.pl3  1 <0>      -0.6800
   17 C17      -7.4676    -8.2381    -3.6670 C.ar   1 <0>       0.1900
   18 C18      -8.2534    -8.8741    -4.6206 C.ar   1 <0>      -0.1700
   19 C19      -8.4897   -10.2312    -4.5245 C.ar   1 <0>      -0.0800
   20 C20      -7.9455   -10.9574    -3.4809 C.ar   1 <0>      -0.1600
   21 C21      -7.1630   -10.3278    -2.5300 C.ar   1 <0>      -0.0800
   22 C22      -6.9177    -8.9721    -2.6229 C.ar   1 <0>      -0.1700
   23 C23      -5.4161    -5.5676    -3.0232 C.2    1 <0>      -0.1800
   24 C24      -4.6414    -4.8402    -2.0067 C.2    1 <0>       0.4700
   25 O25      -3.7064    -4.1217    -2.3102 O.2    1 <0>      -0.4300
   26 H26      -0.1144     2.1420     1.3111 H      1 <0>       0.1100
   27 H27      -1.4548     2.0607     0.1429 H      1 <0>       0.0700
   28 H28      -1.7973     2.0977     1.8892 H      1 <0>       0.0600
   29 H29      -1.4150    -2.2148     1.1483 H      1 <0>       0.4100
   30 H30      -4.2159    -2.1495     1.5048 H      1 <0>       0.0700
   31 H31      -3.8734    -2.1865    -0.2415 H      1 <0>       0.0800
   32 H32      -2.5086    -4.2332     0.0695 H      1 <0>       0.1200
   33 H33      -2.8511    -4.1962     1.8158 H      1 <0>       0.1000
   34 H34      -5.2492    -5.0305     2.4913 H      1 <0>       0.4500
   35 H35      -7.5214    -6.3746    -4.5433 H      1 <0>       0.4200
   36 H36      -8.6790    -8.3076    -5.4357 H      1 <0>       0.1300
   37 H37      -9.1006   -10.7260    -5.2650 H      1 <0>       0.1300
   38 H38      -8.1323   -12.0186    -3.4080 H      1 <0>       0.1200
   39 H39      -6.7396   -10.8980    -1.7164 H      1 <0>       0.1200
   40 H40      -6.3063    -8.4811    -1.8802 H      1 <0>       0.1100
   41 H41      -5.0463    -5.5891    -4.0377 H      1 <0>       0.1600
@<TRIPOS>BOND
   1    1    2 1
   2    1   26 1
   3    1   27 1
   4    1   28 1
   5    2    3 1
   6    3    4 2
   7    3    5 am
   8    5    6 1
   9    5   29 1
  10    6    7 1
  11    6   30 1
  12    6   31 1
  13    7    8 1
  14    7   32 1
  15    7   33 1
  16    8   12 1
  17    8    9 2
  18    9   24 1
  19    9   10 1
  20   10   11 2
  21   10   13 1
  22   11   12 1
  23   12   34 1
  24   13   14 2
  25   13   15 1
  26   15   16 1
  27   15   23 2
  28   16   17 1
  29   16   35 1
  30   17   22 ar
  31   17   18 ar
  32   18   19 ar
  33   18   36 1
  34   19   20 ar
  35   19   37 1
  36   20   21 ar
  37   20   38 1
  38   21   22 ar
  39   21   39 1
  40   22   40 1
  41   23   24 1
  42   23   41 1
  43   24   25 2


@<TRIPOS>MOLECULE
COC(=O)NCCC1=C2C(=NN1)C(=O)C3=CC=CC=C3C2=O
  35   37    0    0    0
SMALL
USER_CHARGES
NO_NAME
@<TRIPOS>ATOM
    1 C1       -0.0176     1.4478     0.0100 C.3    1 <0>       0.0600
    2 O2        0.0021    -0.0041     0.0020 O.3    1 <0>      -0.3700
    3 C3        0.6200    -0.6127     1.0318 C.2    1 <0>       0.6500
    4 O4        1.1289     0.0513     1.9131 O.2    1 <0>      -0.5700
    5 N5        0.6741    -1.9583     1.0852 N.am   1 <0>      -0.7100
    6 C6        1.3465    -2.6205     2.2057 C.3    1 <0>       0.1400
    7 C7        1.2652    -4.1376     2.0247 C.3    1 <0>      -0.0700
    8 C8        1.9569    -4.8188     3.1774 C.2    1 <0>       0.1200
    9 C9        1.4137    -5.1218     4.3861 C.2    1 <0>      -0.2600
   10 C10       2.5110    -5.7761     5.1390 C.2    1 <0>       0.0000
   11 N11       3.5335    -5.7922     4.3430 N.2    1 <0>      -0.2000
   12 N12       3.2378    -5.2533     3.2089 N.pl3  1 <0>      -0.3900
   13 C13       2.2814    -6.2487     6.5178 C.2    1 <0>       0.4800
   14 O14       3.1996    -6.6169     7.2241 O.2    1 <0>      -0.4100
   15 C15       0.8760    -6.2538     7.0049 C.ar   1 <0>      -0.1100
   16 C16       0.5882    -6.8967     8.2088 C.ar   1 <0>      -0.0700
   17 C17      -0.7073    -6.9197     8.6902 C.ar   1 <0>      -0.1000
   18 C18      -1.7265    -6.3073     7.9839 C.ar   1 <0>      -0.1000
   19 C19      -1.4602    -5.6656     6.7886 C.ar   1 <0>      -0.0700
   20 C20      -0.1599    -5.6325     6.2875 C.ar   1 <0>      -0.1100
   21 C21       0.0911    -4.9352     4.9965 C.2    1 <0>       0.4800
   22 O22      -0.7597    -4.2431     4.4716 O.2    1 <0>      -0.4300
   23 H23       1.0050     1.8251     0.0023 H      1 <0>       0.0600
   24 H24      -0.5448     1.8089    -0.8731 H      1 <0>       0.1100
   25 H25      -0.5278     1.7993     0.9068 H      1 <0>       0.0700
   26 H26       0.2679    -2.4883     0.3816 H      1 <0>       0.4100
   27 H27       2.3920    -2.3136     2.2348 H      1 <0>       0.0700
   28 H28       0.8592    -2.3393     3.1393 H      1 <0>       0.0800
   29 H29       0.2197    -4.4445     1.9957 H      1 <0>       0.1100
   30 H30       1.7525    -4.4187     1.0911 H      1 <0>       0.1000
   31 H31       3.8604    -5.1642     2.4704 H      1 <0>       0.4500
   32 H32       1.3788    -7.3776     8.7656 H      1 <0>       0.1500
   33 H33      -0.9249    -7.4189     9.6229 H      1 <0>       0.1400
   34 H34      -2.7357    -6.3307     8.3679 H      1 <0>       0.1400
   35 H35      -2.2608    -5.1893     6.2422 H      1 <0>       0.1400
@<TRIPOS>BOND
   1    1    2 1
   2    1   23 1
   3    1   24 1
   4    1   25 1
   5    2    3 1
   6    3    4 2
   7    3    5 am
   8    5    6 1
   9    5   26 1
  10    6    7 1
  11    6   27 1
  12    6   28 1
  13    7    8 1
  14    7   29 1
  15    7   30 1
  16    8   12 1
  17    8    9 2
  18    9   21 1
  19    9   10 1
  20   10   11 2
  21   10   13 1
  22   11   12 1
  23   12   31 1
  24   13   14 2
  25   13   15 1
  26   15   20 ar
  27   15   16 ar
  28   16   17 ar
  29   16   32 1
  30   17   18 ar
  31   17   33 1
  32   18   19 ar
  33   18   34 1
  34   19   20 ar
  35   19   35 1
  36   20   21 1
  37   21   22 2


@<TRIPOS>MOLECULE
CC1=CC(=O)C2=C(NN=C2C1=O)CCNC(=O)OC
  32   33    0    0    0
SMALL
USER_CHARGES
NO_NAME
@<TRIPOS>ATOM
    1 C1       -0.0176     1.4478     0.0100 C.3    1 <0>       0.0600
    2 O2        0.0021    -0.0041     0.0020 O.3    1 <0>      -0.3700
    3 C3        0.6200    -0.6127     1.0318 C.2    1 <0>       0.6500
    4 O4        1.1289     0.0513     1.9131 O.2    1 <0>      -0.5700
    5 N5        0.6741    -1.9583     1.0852 N.am   1 <0>      -0.7100
    6 C6        1.3465    -2.6205     2.2057 C.3    1 <0>       0.1400
    7 C7        1.2652    -4.1376     2.0247 C.3    1 <0>      -0.0700
    8 C8        1.9569    -4.8188     3.1774 C.2    1 <0>       0.1200
    9 C9        1.4144    -5.1217     4.3853 C.2    1 <0>      -0.2600
   10 C10       2.5119    -5.7761     5.1387 C.2    1 <0>       0.0000
   11 N11       3.5340    -5.7929     4.3445 N.2    1 <0>      -0.2000
   12 N12       3.2398    -5.2541     3.2092 N.pl3  1 <0>      -0.3900
   13 C13       2.2662    -6.2435     6.5179 C.2    1 <0>       0.4700
   14 O14       3.1718    -6.6262     7.2332 O.2    1 <0>      -0.4000
   15 C15       0.8606    -6.2221     6.9865 C.2    1 <0>      -0.1000
   16 C16       0.5276    -6.8964     8.2924 C.3    1 <0>      -0.1200
   17 C17      -0.1254    -5.6317     6.3040 C.2    1 <0>      -0.1400
   18 C18       0.0959    -4.9415     5.0094 C.2    1 <0>       0.4600
   19 O19      -0.7689    -4.2615     4.4915 O.2    1 <0>      -0.4300
   20 H20       1.0050     1.8251     0.0023 H      1 <0>       0.0600
   21 H21      -0.5448     1.8089    -0.8731 H      1 <0>       0.1100
   22 H22      -0.5278     1.7993     0.9068 H      1 <0>       0.0700
   23 H23       0.2679    -2.4883     0.3816 H      1 <0>       0.4100
   24 H24       2.3920    -2.3136     2.2348 H      1 <0>       0.0700
   25 H25       0.8592    -2.3393     3.1393 H      1 <0>       0.0800
   26 H26       0.2197    -4.4445     1.9957 H      1 <0>       0.1100
   27 H27       1.7525    -4.4187     1.0911 H      1 <0>       0.1000
   28 H28       3.8631    -5.1650     2.4714 H      1 <0>       0.4500
   29 H29       0.6273    -6.1794     9.1073 H      1 <0>       0.0900
   30 H30      -0.4966    -7.2679     8.2587 H      1 <0>       0.0800
   31 H31       1.2111    -7.7295     8.4558 H      1 <0>       0.0800
   32 H32      -1.1251    -5.6585     6.7117 H      1 <0>       0.1600
@<TRIPOS>BOND
   1    1    2 1
   2    1   20 1
   3    1   21 1
   4    1   22 1
   5    2    3 1
   6    3    4 2
   7    3    5 am
   8    5    6 1
   9    5   23 1
  10    6    7 1
  11    6   24 1
  12    6   25 1
  13    7    8 1
  14    7   26 1
  15    7   27 1
  16    8   12 1
  17    8    9 2
  18    9   18 1
  19    9   10 1
  20   10   11 2
  21   10   13 1
  22   11   12 1
  23   12   28 1
  24   13   14 2
  25   13   15 1
  26   15   16 1
  27   15   17 2
  28   16   29 1
  29   16   30 1
  30   16   31 1
  31   17   18 1
  32   17   32 1
  33   18   19 2


@<TRIPOS>MOLECULE
COC1=CC(=O)C2=C(NN=C2C1=O)CCNC(=O)OC
  33   34    0    0    0
SMALL
USER_CHARGES
NO_NAME
@<TRIPOS>ATOM
    1 C1       -0.0176     1.4478     0.0100 C.3    1 <0>       0.0600
    2 O2        0.0021    -0.0041     0.0020 O.3    1 <0>      -0.3700
    3 C3        0.6002    -0.6015    -1.0459 C.2    1 <0>       0.6500
    4 O4        1.0922     0.0719    -1.9296 O.2    1 <0>      -0.5700
    5 N5        0.6531    -1.9465    -1.1147 N.am   1 <0>      -0.7100
    6 C6        1.3039    -2.5965    -2.2549 C.3    1 <0>       0.1400
    7 C7        1.2259    -4.1155    -2.0887 C.3    1 <0>      -0.0700
    8 C8        1.8954    -4.7842    -3.2616 C.2    1 <0>       0.1200
    9 C9        3.2092    -5.0510    -3.3911 C.2    1 <0>      -0.2600
   10 C10       3.3356    -5.7078    -4.7148 C.2    1 <0>       0.0000
   11 N11       2.1391    -5.7588    -5.2077 N.2    1 <0>      -0.1800
   12 N12       1.2902    -5.2380    -4.3863 N.pl3  1 <0>      -0.3900
   13 C13       4.6659    -6.1414    -5.1857 C.2    1 <0>       0.4900
   14 O14       4.8472    -6.5239    -6.3248 O.2    1 <0>      -0.3800
   15 C15       5.7737    -6.0854    -4.1934 C.2    1 <0>       0.1200
   16 O16       6.9578    -6.6597    -4.5105 O.3    1 <0>      -0.2900
   17 C17       7.9973    -6.5857    -3.5328 C.3    1 <0>       0.0200
   18 C18       5.6481    -5.4878    -2.9946 C.2    1 <0>      -0.2800
   19 C19       4.4012    -4.8344    -2.5547 C.2    1 <0>       0.4800
   20 O20       4.3599    -4.1488    -1.5501 O.2    1 <0>      -0.4400
   21 H21       1.0050     1.8251     0.0023 H      1 <0>       0.0700
   22 H22      -0.5448     1.8089    -0.8731 H      1 <0>       0.0600
   23 H23      -0.5278     1.7993     0.9068 H      1 <0>       0.1100
   24 H24       0.2603    -2.4840    -0.4093 H      1 <0>       0.4100
   25 H25       0.7989    -2.3054    -3.1760 H      1 <0>       0.0700
   26 H26       2.3487    -2.2892    -2.3006 H      1 <0>       0.0800
   27 H27       1.7309    -4.4066    -1.1677 H      1 <0>       0.1200
   28 H28       0.1811    -4.4228    -2.0430 H      1 <0>       0.1000
   29 H29       0.3374    -5.1728    -4.5564 H      1 <0>       0.4500
   30 H30       8.2254    -5.5406    -3.3234 H      1 <0>       0.0700
   31 H31       7.6697    -7.0767    -2.6164 H      1 <0>       0.0700
   32 H32       8.8896    -7.0833    -3.9127 H      1 <0>       0.1100
   33 H33       6.4961    -5.4870    -2.3258 H      1 <0>       0.1600
@<TRIPOS>BOND
   1    1    2 1
   2    1   21 1
   3    1   22 1
   4    1   23 1
   5    2    3 1
   6    3    4 2
   7    3    5 am
   8    5    6 1
   9    5   24 1
  10    6    7 1
  11    6   25 1
  12    6   26 1
  13    7    8 1
  14    7   27 1
  15    7   28 1
  16    8   12 1
  17    8    9 2
  18    9   19 1
  19    9   10 1
  20   10   11 2
  21   10   13 1
  22   11   12 1
  23   12   29 1
  24   13   14 2
  25   13   15 1
  26   15   16 1
  27   15   18 2
  28   16   17 1
  29   17   30 1
  30   17   31 1
  31   17   32 1
  32   18   19 1
  33   18   33 1
  34   19   20 2


@<TRIPOS>MOLECULE
CN(C1=CC=CC=C1)C2=CC(=O)C3=C(NN=C3C2=O)CCNC(=O)OC
  44   46    0    0    0
SMALL
USER_CHARGES
NO_NAME
@<TRIPOS>ATOM
    1 C1       -0.0123     1.8558    -0.8061 C.3    1 <0>       0.0600
    2 O2        0.0754     0.4248    -0.5758 O.3    1 <0>      -0.3700
    3 C3        0.6159    -0.3204    -1.5583 C.2    1 <0>       0.6500
    4 O4        1.0037     0.2105    -2.5802 O.2    1 <0>      -0.5700
    5 N5        0.7268    -1.6552    -1.4083 N.am   1 <0>      -0.7100
    6 C6        1.3150    -2.4660    -2.4773 C.3    1 <0>       0.1400
    7 C7        1.3224    -3.9370    -2.0564 C.3    1 <0>      -0.0700
    8 C8        1.9274    -4.7711    -3.1560 C.2    1 <0>       0.1300
    9 C9        3.2375    -5.0117    -3.3524 C.2    1 <0>      -0.2600
   10 C10       3.2895    -5.8776    -4.5553 C.2    1 <0>       0.0000
   11 N11       2.0613    -6.0511    -4.9281 N.2    1 <0>      -0.1900
   12 N12       1.2567    -5.4279    -4.1339 N.pl3  1 <0>      -0.4000
   13 C13       4.5970    -6.3398    -5.0611 C.2    1 <0>       0.4600
   14 O14       4.7053    -6.9025    -6.1325 O.2    1 <0>      -0.4000
   15 C15       5.7768    -6.0799    -4.1895 C.2    1 <0>       0.1400
   16 N16       6.9802    -6.6696    -4.5126 N.pl3  1 <0>      -0.5800
   17 C17       7.6730    -6.2917    -5.7469 C.3    1 <0>       0.0900
   18 C18       7.5385    -7.6268    -3.6639 C.ar   1 <0>       0.1900
   19 C19       6.8287    -8.0742    -2.5560 C.ar   1 <0>      -0.1800
   20 C20       7.3842    -9.0212    -1.7186 C.ar   1 <0>      -0.0800
   21 C21       8.6454    -9.5244    -1.9812 C.ar   1 <0>      -0.1600
   22 C22       9.3547    -9.0815    -3.0828 C.ar   1 <0>      -0.0800
   23 C23       8.8032    -8.1389    -3.9279 C.ar   1 <0>      -0.1700
   24 C24       5.7157    -5.2899    -3.0960 C.2    1 <0>      -0.1600
   25 C25       4.4803    -4.6168    -2.6678 C.2    1 <0>       0.4700
   26 O26       4.4848    -3.7725    -1.7905 O.2    1 <0>      -0.4200
   27 H27       0.9874     2.2603    -0.9643 H      1 <0>       0.0700
   28 H28      -0.6245     2.0450    -1.6878 H      1 <0>       0.0600
   29 H29      -0.4656     2.3362     0.0610 H      1 <0>       0.1100
   30 H30       0.4173    -2.0789    -0.5925 H      1 <0>       0.4100
   31 H31       0.7251    -2.3514    -3.3867 H      1 <0>       0.0700
   32 H32       2.3371    -2.1361    -2.6632 H      1 <0>       0.0800
   33 H33       1.9123    -4.0517    -1.1470 H      1 <0>       0.1200
   34 H34       0.3003    -4.2669    -1.8705 H      1 <0>       0.1000
   35 H35       0.2914    -5.4244    -4.2292 H      1 <0>       0.4500
   36 H36       8.4106    -5.5196    -5.5277 H      1 <0>       0.0600
   37 H37       8.1743    -7.1650    -6.1642 H      1 <0>       0.0800
   38 H38       6.9497    -5.9092    -6.4671 H      1 <0>       0.0800
   39 H39       5.8440    -7.6814    -2.3501 H      1 <0>       0.1200
   40 H40       6.8334    -9.3691    -0.8572 H      1 <0>       0.1200
   41 H41       9.0776   -10.2647    -1.3243 H      1 <0>       0.1200
   42 H42      10.3393    -9.4766    -3.2848 H      1 <0>       0.1300
   43 H43       9.3575    -7.7937    -4.7881 H      1 <0>       0.1300
   44 H44       6.6120    -5.1470    -2.5106 H      1 <0>       0.1600
@<TRIPOS>BOND
   1    1    2 1
   2    1   27 1
   3    1   28 1
   4    1   29 1
   5    2    3 1
   6    3    4 2
   7    3    5 am
   8    5    6 1
   9    5   30 1
  10    6    7 1
  11    6   31 1
  12    6   32 1
  13    7    8 1
  14    7   33 1
  15    7   34 1
  16    8   12 1
  17    8    9 2
  18    9   25 1
  19    9   10 1
  20   10   11 2
  21   10   13 1
  22   11   12 1
  23   12   35 1
  24   13   14 2
  25   13   15 1
  26   15   16 1
  27   15   24 2
  28   16   17 1
  29   16   18 1
  30   17   36 1
  31   17   37 1
  32   17   38 1
  33   18   23 ar
  34   18   19 ar
  35   19   20 ar
  36   19   39 1
  37   20   21 ar
  38   20   40 1
  39   21   22 ar
  40   21   41 1
  41   22   23 ar
  42   22   42 1
  43   23   43 1
  44   24   25 1
  45   24   44 1
  46   25   26 2


@<TRIPOS>MOLECULE
COC1=C(C(=C(C2=C1C(=O)C3=C(NN=C3C2=O)CCNC(=O)OC)OC)Cl)Cl
43    45    1     0     0
SMALL
USER_CHARGES
@<TRIPOS>ATOM
1      C1     -0.0176    1.4478    0.0100 C.3      1 ZINC000045338516    0.0600
2      O2      0.0021   -0.0041    0.0020 O.3      1 ZINC000045338516   -0.3700
3      C3     -1.1891   -0.6316    0.0100 C.2      1 ZINC000045338516    0.6500
4      O4     -2.2170    0.0163    0.0233 O.2      1 ZINC000045338516   -0.5700
5      N5     -1.2414   -1.9783    0.0033 N.am     1 ZINC000045338516   -0.7100
6      C6     -2.5375   -2.6611    0.0120 C.3      1 ZINC000045338516    0.1400
7      C7     -2.3165   -4.1750    0.0018 C.3      1 ZINC000045338516   -0.0700
8      C8     -3.6498   -4.8774    0.0107 C.2      1 ZINC000045338516    0.1300
9      C9     -4.4202   -5.1708   -1.0697 C.2      1 ZINC000045338516   -0.2600
10     C10    -5.6102   -5.8550   -0.5095 C.2      1 ZINC000045338516    0.0000
11     N11    -5.4318   -5.8941    0.7733 N.2      1 ZINC000045338516   -0.1900
12     N12    -4.3102   -5.3439    1.0951 N.pl3    1 ZINC000045338516   -0.3900
13     C13    -6.6823   -6.3264   -1.4078 C.2      1 ZINC000045338516    0.4900
14     O14    -7.7479   -6.7202   -0.9734 O.2      1 ZINC000045338516   -0.3900
15     C15    -6.4021   -6.2979   -2.8632 C.ar     1 ZINC000045338516   -0.1100
16     C16    -7.2933   -6.9396   -3.7302 C.ar     1 ZINC000045338516    0.1600
17     O17    -8.3863   -7.5705   -3.2326 O.3      1 ZINC000045338516   -0.3100
18     C18    -9.5797   -6.7953   -3.1022 C.3      1 ZINC000045338516    0.0400
19     C19    -7.0604   -6.9311   -5.1034 C.ar     1 ZINC000045338516   -0.0300
20     Cl20   -8.1717   -7.7289   -6.1721 Cl       1 ZINC000045338516   -0.0100
21     C21    -5.9520   -6.2920   -5.6190 C.ar     1 ZINC000045338516   -0.0300
22     Cl22   -5.6764   -6.2894   -7.3330 Cl       1 ZINC000045338516   -0.0100
23     C23    -5.0527   -5.6484   -4.7717 C.ar     1 ZINC000045338516    0.1600
24     O24    -3.9653   -5.0223   -5.2876 O.3      1 ZINC000045338516   -0.3100
25     C25    -4.1160   -3.6458   -5.6408 C.3      1 ZINC000045338516    0.0400
26     C26    -5.2694   -5.6463   -3.3905 C.ar     1 ZINC000045338516   -0.1100
27     C27    -4.2906   -4.9534   -2.5169 C.2      1 ZINC000045338516    0.4800
28     O28    -3.4212   -4.2379   -2.9776 O.2      1 ZINC000045338516   -0.4100
29     H29     1.0050    1.8251    0.0023 H        1 ZINC000045338516    0.1100
30     H30    -0.5448    1.8089   -0.8731 H        1 ZINC000045338516    0.0700
31     H31    -0.5278    1.7993    0.9068 H        1 ZINC000045338516    0.0600
32     H32    -0.4208   -2.4955   -0.0073 H        1 ZINC000045338516    0.4100
33     H33    -3.0899   -2.3806    0.9088 H        1 ZINC000045338516    0.0700
34     H34    -3.1069   -2.3711   -0.8710 H        1 ZINC000045338516    0.0800
35     H35    -1.7641   -4.4555   -0.8951 H        1 ZINC000045338516    0.1200
36     H36    -1.7471   -4.4651    0.8848 H        1 ZINC000045338516    0.1000
37     H37    -3.9834   -5.2674    2.0052 H        1 ZINC000045338516    0.4500
38     H38   -10.3751   -7.4187   -2.6937 H        1 ZINC000045338516    0.1100
39     H39    -9.3960   -5.9555   -2.4321 H        1 ZINC000045338516    0.0600
40     H40    -9.8782   -6.4205   -4.0812 H        1 ZINC000045338516    0.0500
41     H41    -3.1747   -3.2680   -6.0398 H        1 ZINC000045338516    0.1100
42     H42    -4.8961   -3.5477   -6.3957 H        1 ZINC000045338516    0.0500
43     H43    -4.3921   -3.0719   -4.7562 H        1 ZINC000045338516    0.0600
@<TRIPOS>BOND
1     1     2     1
2     1     29    1
3     1     30    1
4     1     31    1
5     2     3     1
6     3     4     2
7     3     5     am
8     5     6     1
9     5     32    1
10    6     7     1
11    6     33    1
12    6     34    1
13    7     8     1
14    7     35    1
15    7     36    1
16    8     12    1
17    8     9     2
18    9     27    1
19    9     10    1
20    10    11    2
21    10    13    1
22    11    12    1
23    12    37    1
24    13    14    2
25    13    15    1
26    15    26    ar
27    15    16    ar
28    16    17    1
29    16    19    ar
30    17    18    1
31    18    38    1
32    18    39    1
33    18    40    1
34    19    20    1
35    19    21    ar
36    21    22    1
37    21    23    ar
38    23    24    1
39    23    26    ar
40    24    25    1
41    25    41    1
42    25    42    1
43    25    43    1
44    26    27    1
45    27    28    2
@<TRIPOS>SUBSTRUCTURE
1   ZINC000045338516 1     RESIDUE    1   A     ZIN   1


@<TRIPOS>MOLECULE
CC(CN1C2=C3C=C(C=CC3=NC=C2N(C1=O)C)C4=CC(=CN=C4)C(C)(C)O)OC
56    59    1     0     0
SMALL
USER_CHARGES
@<TRIPOS>ATOM
1      C1     -0.0671    1.4441    0.0190 C.3      1 ZINC000143116580    0.0300
2      O2     -0.0274    0.0157    0.0062 O.3      1 ZINC000143116580   -0.3700
3      C3     -1.3161   -0.6017    0.0160 C.3      1 ZINC000143116580    0.0600
4      H4     -2.0221    0.0395    0.5437 H        1 ZINC000143116580    0.0700
5      C5     -1.7930   -0.8095   -1.4228 C.3      1 ZINC000143116580   -0.1800
6      C6     -1.2279   -1.9548    0.7246 C.3      1 ZINC000143116580    0.1200
7      N7     -0.8872   -1.7467    2.1341 N.am     1 ZINC000143116580   -0.5100
8      C8      0.3515   -1.7994    2.6609 C.2      1 ZINC000143116580    0.6800
9      O9      1.3712   -2.0287    2.0376 O.2      1 ZINC000143116580   -0.5300
10     N10     0.2864   -1.5582    3.9848 N.am     1 ZINC000143116580   -0.5300
11     C11     1.4226   -1.5280    4.9092 C.3      1 ZINC000143116580    0.0900
12     C12    -1.0470   -1.3418    4.3227 C.ar     1 ZINC000143116580    0.0200
13     C13    -1.7052   -1.0540    5.5175 C.ar     1 ZINC000143116580    0.1700
14     N14    -3.0069   -0.8938    5.5616 N.ar     1 ZINC000143116580   -0.4600
15     C15    -3.7716   -0.9968    4.4684 C.ar     1 ZINC000143116580    0.1300
16     C16    -5.1647   -0.8193    4.5472 C.ar     1 ZINC000143116580   -0.0700
17     C17    -5.9303   -0.9260    3.4303 C.ar     1 ZINC000143116580   -0.0900
18     C18    -5.3517   -1.2137    2.1844 C.ar     1 ZINC000143116580   -0.0300
19     C19    -6.2110   -1.3247    0.9803 C.ar     1 ZINC000143116580   -0.1000
20     C20    -5.6534   -1.6154   -0.2630 C.ar     1 ZINC000143116580    0.1100
21     N21    -6.4154   -1.7142   -1.3331 N.ar     1 ZINC000143116580   -0.4700
22     C22    -7.7221   -1.5446   -1.2751 C.ar     1 ZINC000143116580    0.1100
23     C23    -8.3510   -1.2531   -0.0782 C.ar     1 ZINC000143116580   -0.1600
24     C24    -9.8450   -1.0623   -0.0295 C.3      1 ZINC000143116580    0.1700
25     C25   -10.3320   -0.5054   -1.3687 C.3      1 ZINC000143116580   -0.1800
26     C26   -10.5224   -2.4074    0.2401 C.3      1 ZINC000143116580   -0.1400
27     O27   -10.1743   -0.1452    1.0158 O.3      1 ZINC000143116580   -0.5500
28     C28    -7.5940   -1.1451    1.0755 C.ar     1 ZINC000143116580   -0.0500
29     C29    -3.9846   -1.3938    2.0727 C.ar     1 ZINC000143116580   -0.1000
30     C30    -3.1797   -1.2871    3.2133 C.ar     1 ZINC000143116580   -0.0700
31     C31    -1.7809   -1.4573    3.1467 C.ar     1 ZINC000143116580    0.1300
32     H32     0.9500    1.8359    0.0105 H        1 ZINC000143116580    0.0900
33     H33    -0.6012    1.8007   -0.8617 H        1 ZINC000143116580    0.0400
34     H34    -0.5803    1.7853    0.9181 H        1 ZINC000143116580    0.0400
35     H35    -2.7760   -1.2804   -1.4154 H        1 ZINC000143116580    0.0700
36     H36    -1.8557    0.1545   -1.9276 H        1 ZINC000143116580    0.0700
37     H37    -1.0869   -1.4507   -1.9506 H        1 ZINC000143116580    0.0700
38     H38    -2.1887   -2.4649    0.6545 H        1 ZINC000143116580    0.1000
39     H39    -0.4580   -2.5636    0.2507 H        1 ZINC000143116580    0.1100
40     H40     2.3423   -1.7327    4.3613 H        1 ZINC000143116580    0.1000
41     H41     1.4874   -0.5438    5.3731 H        1 ZINC000143116580    0.0800
42     H42     1.2832   -2.2850    5.6810 H        1 ZINC000143116580    0.0800
43     H43    -1.1309   -0.9610    6.4274 H        1 ZINC000143116580    0.1700
44     H44    -5.6267   -0.5981    5.4979 H        1 ZINC000143116580    0.1500
45     H45    -6.9990   -0.7878    3.5020 H        1 ZINC000143116580    0.1400
46     H46    -4.5867   -1.7607   -0.3504 H        1 ZINC000143116580    0.1500
47     H47    -8.3103   -1.6344   -2.1765 H        1 ZINC000143116580    0.1600
48     H48   -10.0808   -1.2050   -2.1660 H        1 ZINC000143116580    0.0700
49     H49   -11.4127   -0.3674   -1.3335 H        1 ZINC000143116580    0.0700
50     H50    -9.8494    0.4529   -1.5608 H        1 ZINC000143116580    0.0600
51     H51   -10.1755   -2.8042    1.1943 H        1 ZINC000143116580    0.0600
52     H52   -11.6031   -2.2695    0.2754 H        1 ZINC000143116580    0.0700
53     H53   -10.2713   -3.1070   -0.5571 H        1 ZINC000143116580    0.0700
54     H54    -9.7781    0.7305    0.9099 H        1 ZINC000143116580    0.3800
55     H55    -8.0589   -0.9187    2.0237 H        1 ZINC000143116580    0.1500
56     H56    -3.5416   -1.6155    1.1130 H        1 ZINC000143116580    0.1300
@<TRIPOS>BOND
1     1     2     1
2     1     32    1
3     1     33    1
4     1     34    1
5     2     3     1
6     3     4     1
7     3     5     1
8     3     6     1
9     5     35    1
10    5     36    1
11    5     37    1
12    6     7     1
13    6     38    1
14    6     39    1
15    7     31    1
16    7     8     am
17    8     9     2
18    8     10    am
19    10    11    1
20    10    12    1
21    11    40    1
22    11    41    1
23    11    42    1
24    12    31    ar
25    12    13    ar
26    13    14    ar
27    13    43    1
28    14    15    ar
29    15    30    ar
30    15    16    ar
31    16    17    ar
32    16    44    1
33    17    18    ar
34    17    45    1
35    18    19    1
36    18    29    ar
37    19    28    ar
38    19    20    ar
39    20    21    ar
40    20    46    1
41    21    22    ar
42    22    23    ar
43    22    47    1
44    23    24    1
45    23    28    ar
46    24    25    1
47    24    26    1
48    24    27    1
49    25    48    1
50    25    49    1
51    25    50    1
52    26    51    1
53    26    52    1
54    26    53    1
55    27    54    1
56    28    55    1
57    29    30    ar
58    29    56    1
59    30    31    ar
@<TRIPOS>SUBSTRUCTURE
1   ZINC000143116580 1     RESIDUE    1   A     ZIN   1


@<TRIPOS>MOLECULE
C1COCCN1C2=NC(=NC(=N2)NC3=CC=C(C=C3)[N+](=O)[O-])N4CCOCC4
49    52    1     0     0
SMALL
USER_CHARGES
@<TRIPOS>ATOM
1      O1      0.1112    0.2101   -0.7080 O.2      1 ZINC000013563531   -0.1600
2      N2     -0.0123    1.2185   -0.0362 N.pl3    1 ZINC000013563531    0.0300
3      O3      0.9292    1.6364    0.6138 O.2      1 ZINC000013563531   -0.1600
4      C4     -1.3049    1.9396   -0.0145 C.ar     1 ZINC000013563531   -0.0600
5      C5     -1.4417    3.0876    0.7443 C.ar     1 ZINC000013563531   -0.0300
6      C6     -2.6462    3.7630    0.7664 C.ar     1 ZINC000013563531   -0.1500
7      C7     -3.7207    3.2881    0.0254 C.ar     1 ZINC000013563531    0.2200
8      N8     -4.9414    3.9698    0.0452 N.pl3    1 ZINC000013563531   -0.6200
9      C9     -6.1268    3.2669   -0.0520 C.ar     1 ZINC000013563531    0.6300
10     N10    -6.1136    1.9376   -0.0479 N.ar     1 ZINC000013563531   -0.6400
11     C11    -7.2542    1.2613   -0.1410 C.ar     1 ZINC000013563531    0.5900
12     N12    -7.2405   -0.1188   -0.1363 N.3      1 ZINC000013563531   -0.4500
13     C13    -8.0875   -0.6504    0.9413 C.3      1 ZINC000013563531    0.0300
14     C14    -8.0909   -2.1799    0.8728 C.3      1 ZINC000013563531    0.0600
15     O15    -6.7459   -2.6588    0.9551 O.3      1 ZINC000013563531   -0.3800
16     C16    -5.8933   -2.1612   -0.0797 C.3      1 ZINC000013563531    0.0600
17     C17    -5.8675   -0.6316   -0.0209 C.3      1 ZINC000013563531    0.0300
18     N18    -8.4081    1.9142   -0.2381 N.ar     1 ZINC000013563531   -0.6000
19     C19    -8.4213    3.2435   -0.2422 C.ar     1 ZINC000013563531    0.5900
20     N20    -9.6193    3.9214   -0.3426 N.3      1 ZINC000013563531   -0.4500
21     C21   -10.3549    3.5154   -1.5490 C.3      1 ZINC000013563531    0.0300
22     C22   -11.7002    4.2451   -1.5896 C.3      1 ZINC000013563531    0.0600
23     O23   -11.4730    5.6564   -1.5432 O.3      1 ZINC000013563531   -0.3800
24     C24   -10.7594    6.0867   -0.3809 C.3      1 ZINC000013563531    0.0600
25     C25    -9.4046    5.3757   -0.3281 C.3      1 ZINC000013563531    0.0300
26     N26    -7.2811    3.9199   -0.1440 N.ar     1 ZINC000013563531   -0.6400
27     C27    -3.5798    2.1348   -0.7356 C.ar     1 ZINC000013563531   -0.1200
28     C28    -2.3711    1.4670   -0.7575 C.ar     1 ZINC000013563531   -0.0300
29     H29    -0.6060    3.4562    1.3205 H        1 ZINC000013563531    0.1600
30     H30    -2.7525    4.6593    1.3595 H        1 ZINC000013563531    0.1500
31     H31    -4.9559    4.9363    0.1272 H        1 ZINC000013563531    0.4300
32     H32    -7.6932   -0.3301    1.9057 H        1 ZINC000013563531    0.0600
33     H33    -9.1050   -0.2784    0.8216 H        1 ZINC000013563531    0.1100
34     H34    -8.6713   -2.5801    1.7042 H        1 ZINC000013563531    0.1100
35     H35    -8.5346   -2.5010   -0.0695 H        1 ZINC000013563531    0.0700
36     H36    -4.8842   -2.5480    0.0627 H        1 ZINC000013563531    0.1100
37     H37    -6.2731   -2.4819   -1.0498 H        1 ZINC000013563531    0.0700
38     H38    -5.2646   -0.2459   -0.8430 H        1 ZINC000013563531    0.1000
39     H39    -5.4378   -0.3110    0.9281 H        1 ZINC000013563531    0.0700
40     H40    -9.7736    3.7742   -2.4340 H        1 ZINC000013563531    0.0600
41     H41   -10.5252    2.4391   -1.5264 H        1 ZINC000013563531    0.1100
42     H42   -12.2245    3.9909   -2.5108 H        1 ZINC000013563531    0.1100
43     H43   -12.3030    3.9452   -0.7323 H        1 ZINC000013563531    0.0700
44     H44   -10.6032    7.1645   -0.4280 H        1 ZINC000013563531    0.1100
45     H45   -11.3348    5.8403    0.5114 H        1 ZINC000013563531    0.0600
46     H46    -8.8812    5.6573    0.5856 H        1 ZINC000013563531    0.1000
47     H47    -8.8081    5.6642   -1.1936 H        1 ZINC000013563531    0.0700
48     H48    -4.4134    1.7629   -1.3129 H        1 ZINC000013563531    0.1600
49     H49    -2.2609    0.5702   -1.3490 H        1 ZINC000013563531    0.1600
@<TRIPOS>BOND
1     1     2     2
2     2     3     2
3     2     4     1
4     4     28    ar
5     4     5     ar
6     5     6     ar
7     5     29    1
8     6     7     ar
9     6     30    1
10    7     8     1
11    7     27    ar
12    8     9     1
13    8     31    1
14    9     26    ar
15    9     10    ar
16    10    11    ar
17    11    12    1
18    11    18    ar
19    12    17    1
20    12    13    1
21    13    14    1
22    13    32    1
23    13    33    1
24    14    15    1
25    14    34    1
26    14    35    1
27    15    16    1
28    16    17    1
29    16    36    1
30    16    37    1
31    17    38    1
32    17    39    1
33    18    19    ar
34    19    20    1
35    19    26    ar
36    20    25    1
37    20    21    1
38    21    22    1
39    21    40    1
40    21    41    1
41    22    23    1
42    22    42    1
43    22    43    1
44    23    24    1
45    24    25    1
46    24    44    1
47    24    45    1
48    25    46    1
49    25    47    1
50    27    28    ar
51    27    48    1
52    28    49    1
@<TRIPOS>SUBSTRUCTURE
1   ZINC000013563531 1     RESIDUE    1   A     ZIN   1


@<TRIPOS>MOLECULE
CC(=CC1=CC=CC=C1)C=C2C(=O)N(C(=S)S2)CC(=O)O
33    34    1     0     0
SMALL
USER_CHARGES
@<TRIPOS>ATOM
1      C1      0.2965    1.8459    0.0927 C.3      1 ZINC000000967120   -0.1100
2      C2      0.0292    0.3652    0.0087 C.2      1 ZINC000000967120   -0.0900
3      C3     -0.0366   -0.4067    1.1856 C.2      1 ZINC000000967120    0.0700
4      C4     -1.0195   -0.1708    2.1021 C.2      1 ZINC000000967120   -0.2500
5      S5     -1.2047   -0.8903    3.7140 S.3      1 ZINC000000967120    0.0700
6      C6     -2.6897   -0.0013    4.0954 C.2      1 ZINC000000967120    0.2900
7      S7     -3.5961   -0.1035    5.5442 S.2      1 ZINC000000967120   -0.3900
8      N8     -2.9664    0.7653    3.0343 N.am     1 ZINC000000967120   -0.4700
9      C9     -4.1478    1.6318    3.0377 C.3      1 ZINC000000967120    0.0100
10     C10    -3.7793    2.9813    3.5982 C.2      1 ZINC000000967120    0.5000
11     O11    -2.6359    3.1991    3.9612 O.co2    1 ZINC000000967120   -0.6800
12     O12    -4.6246    3.8552    3.6888 O.co2    1 ZINC000000967120   -0.6800
13     C13    -2.1619    0.7399    1.9848 C.2      1 ZINC000000967120    0.5500
14     O14    -2.3614    1.4144    0.9911 O.2      1 ZINC000000967120   -0.4400
15     C15    -0.1478   -0.2235   -1.1977 C.2      1 ZINC000000967120   -0.0900
16     C16    -0.5491   -1.6357   -1.2749 C.ar     1 ZINC000000967120   -0.0600
17     C17    -1.3453   -2.1967   -0.2700 C.ar     1 ZINC000000967120   -0.1200
18     C18    -1.7176   -3.5216   -0.3500 C.ar     1 ZINC000000967120   -0.1200
19     C19    -1.3062   -4.2966   -1.4206 C.ar     1 ZINC000000967120   -0.1200
20     C20    -0.5182   -3.7496   -2.4185 C.ar     1 ZINC000000967120   -0.1200
21     C21    -0.1419   -2.4247   -2.3565 C.ar     1 ZINC000000967120   -0.1100
22     H22     1.3721    2.0221    0.0821 H        1 ZINC000000967120    0.0700
23     H23    -0.1622    2.3468   -0.7598 H        1 ZINC000000967120    0.0700
24     H24    -0.1272    2.2397    1.0166 H        1 ZINC000000967120    0.0700
25     H25     0.6909   -1.1851    1.3623 H        1 ZINC000000967120    0.1500
26     H26    -4.5148    1.7497    2.0182 H        1 ZINC000000967120    0.1000
27     H27    -4.9261    1.1824    3.6544 H        1 ZINC000000967120    0.1100
28     H28     0.0059    0.3444   -2.1034 H        1 ZINC000000967120    0.1300
29     H29    -1.6668   -1.5934    0.5661 H        1 ZINC000000967120    0.1300
30     H30    -2.3318   -3.9562    0.4248 H        1 ZINC000000967120    0.1200
31     H31    -1.6013   -5.3340   -1.4775 H        1 ZINC000000967120    0.1200
32     H32    -0.2007   -4.3612   -3.2502 H        1 ZINC000000967120    0.1200
33     H33     0.4727   -1.9993   -3.1360 H        1 ZINC000000967120    0.1300
@<TRIPOS>BOND
1     1     2     1
2     1     22    1
3     1     23    1
4     1     24    1
5     2     3     1
6     2     15    2
7     3     4     2
8     3     25    1
9     4     13    1
10    4     5     1
11    5     6     1
12    6     7     2
13    6     8     am
14    8     9     1
15    8     13    am
16    9     10    1
17    9     26    1
18    9     27    1
19    10    11    ar
20    10    12    ar
21    13    14    2
22    15    16    1
23    15    28    1
24    16    21    ar
25    16    17    ar
26    17    18    ar
27    17    29    1
28    18    19    ar
29    18    30    1
30    19    20    ar
31    19    31    1
32    20    21    ar
33    20    32    1
34    21    33    1
@<TRIPOS>SUBSTRUCTURE
1   ZINC000000967120 1     RESIDUE    1   A     ZIN   1


@<TRIPOS>MOLECULE
COC1=CC(=O)C=C(C1=O)OC
  20   20    0    0    0
SMALL
USER_CHARGES
NO_NAME
@<TRIPOS>ATOM
    1 C1       -0.0173     1.4248     0.0099 C.3    1 <0>       0.0200
    2 O2        0.0021    -0.0041     0.0020 O.3    1 <0>      -0.2900
    3 C3       -1.1961    -0.6352     0.0101 C.2    1 <0>       0.1100
    4 C4       -2.3373     0.0816     0.0192 C.2    1 <0>      -0.2800
    5 C5       -3.6392    -0.6018     0.0274 C.2    1 <0>       0.4300
    6 O6       -4.6654     0.0510     0.0356 O.2    1 <0>      -0.4400
    7 C7       -3.7062    -2.0707     0.0253 C.2    1 <0>      -0.2800
    8 C8       -2.5732    -2.8004     0.0167 C.2    1 <0>       0.1100
    9 O9       -2.6369    -4.1531     0.0151 O.3    1 <0>      -0.2900
   10 C10      -3.9393    -4.7413     0.0230 C.3    1 <0>       0.0200
   11 C11      -1.2558    -2.1178     0.0027 C.2    1 <0>       0.4400
   12 O12      -0.2321    -2.7689    -0.0056 O.2    1 <0>      -0.3600
   13 H13       1.0053     1.8021     0.0021 H      1 <0>       0.1100
   14 H14      -0.5445     1.7859    -0.8732 H      1 <0>       0.0700
   15 H15      -0.5275     1.7763     0.9067 H      1 <0>       0.0700
   16 H16      -2.2954     1.1608     0.0208 H      1 <0>       0.1600
   17 H17      -4.6659    -2.5660     0.0310 H      1 <0>       0.1600
   18 H18      -3.8475    -5.8274     0.0208 H      1 <0>       0.1100
   19 H19      -4.4759    -4.4238     0.9170 H      1 <0>       0.0700
   20 H20      -4.4878    -4.4212    -0.8629 H      1 <0>       0.0700
@<TRIPOS>BOND
   1    1    2 1
   2    1   13 1
   3    1   14 1
   4    1   15 1
   5    2    3 1
   6    3   11 1
   7    3    4 2
   8    4    5 1
   9    4   16 1
  10    5    6 2
  11    5    7 1
  12    7    8 2
  13    7   17 1
  14    8    9 1
  15    8   11 1
  16    9   10 1
  17   10   18 1
  18   10   19 1
  19   10   20 1
  20   11   12 2


@<TRIPOS>MOLECULE
CC1=C(C=NC=C1)C2=CN3C(=NC(=C3C4=NC(=NC(=N4)C)N)NC5=CC=NN5)C=C2
  48   52    0    0    0
SMALL
USER_CHARGES
NO_NAME
@<TRIPOS>ATOM
    1 C1       -0.0184     1.5028     0.0103 C.3    1 <0>      -0.1200
    2 C2        0.0021    -0.0041     0.0020 C.ar   1 <0>      -0.0200
    3 C3        0.0061    -0.7072    -1.1902 C.ar   1 <0>      -0.1700
    4 C4        0.0250    -2.0899    -1.1602 C.ar   1 <0>       0.1100
    5 N5        0.0387    -2.7448    -0.0155 N.ar   1 <0>      -0.4900
    6 C6        0.0355    -2.1189     1.1438 C.ar   1 <0>       0.1200
    7 C7        0.0232    -0.7270     1.1980 C.ar   1 <0>      -0.1000
    8 C8        0.0198    -0.0233     2.5046 C.2    1 <0>      -0.0800
    9 C9        1.1619     0.0465     3.2454 C.2    1 <0>       0.1100
   10 N10       1.1692     0.6884     4.4439 N.pl3  1 <0>      -0.3200
   11 C11       0.0337     1.2761     4.9294 C.2    1 <0>       0.2900
   12 N12       0.3095     1.8294     6.1076 N.2    1 <0>      -0.5200
   13 C13       1.5890     1.6248     6.4129 C.2    1 <0>       0.4300
   14 N14       2.2334     2.0584     7.5677 N.pl3  1 <0>      -0.5900
   15 C15       1.5252     2.7815     8.5351 C.2    1 <0>       0.3100
   16 N16       2.0146     3.2500     9.6591 N.2    1 <0>      -0.3300
   17 N17       0.9852     3.9104    10.3420 N.pl3  1 <0>      -0.4700
   18 C18      -0.1353     3.8240     9.5946 C.2    1 <0>       0.0700
   19 C19       0.1682     3.1376     8.4696 C.2    1 <0>      -0.2700
   20 C20       2.1682     0.9019     5.3773 C.2    1 <0>      -0.1100
   21 C21       3.5613     0.4538     5.2910 C.ar   1 <0>       0.5000
   22 N22       4.4183     0.7315     6.2799 N.ar   1 <0>      -0.6100
   23 C23       5.6722     0.3270     6.1999 C.ar   1 <0>       0.4200
   24 C24       6.6349     0.6412     7.3160 C.3    1 <0>      -0.0900
   25 N25       6.0869    -0.3532     5.1445 N.ar   1 <0>      -0.6200
   26 C26       5.2421    -0.6353     4.1539 C.ar   1 <0>       0.6200
   27 N27       5.6800    -1.3457     3.0544 N.pl3  1 <0>      -0.8000
   28 N28       3.9782    -0.2381     4.2270 N.ar   1 <0>      -0.6300
   29 C29      -1.1583     1.2169     4.1812 C.2    1 <0>      -0.1000
   30 C30      -1.1653     0.5800     2.9797 C.2    1 <0>      -0.0600
   31 H31       1.0042     1.8801     0.0026 H      1 <0>       0.0800
   32 H32      -0.5455     1.8639    -0.8728 H      1 <0>       0.0800
   33 H33      -0.5286     1.8543     0.9071 H      1 <0>       0.0800
   34 H34      -0.0057    -0.1818    -2.1338 H      1 <0>       0.1400
   35 H35       0.0282    -2.6417    -2.0885 H      1 <0>       0.1600
   36 H36       0.0468    -2.6901     2.0603 H      1 <0>       0.1600
   37 H37       2.0679    -0.4119     2.8776 H      1 <0>       0.1800
   38 H38       3.1732     1.8596     7.7023 H      1 <0>       0.4400
   39 H39       1.0640     4.3525    11.2018 H      1 <0>       0.4400
   40 H40      -1.1017     4.2342     9.8479 H      1 <0>       0.1800
   41 H41      -0.5136     2.8993     7.6667 H      1 <0>       0.1800
   42 H42       6.6130    -0.1627     8.0518 H      1 <0>       0.1000
   43 H43       7.6424     0.7357     6.9110 H      1 <0>       0.0900
   44 H44       6.3455     1.5779     7.7925 H      1 <0>       0.0900
   45 H45       6.6030    -1.6395     3.0030 H      1 <0>       0.4200
   46 H46       5.0648    -1.5511     2.3332 H      1 <0>       0.4200
   47 H47      -2.0596     1.6780     4.5572 H      1 <0>       0.1600
   48 H48      -2.0732     0.5281     2.3971 H      1 <0>       0.1500
@<TRIPOS>BOND
   1    1    2 1
   2    1   31 1
   3    1   32 1
   4    1   33 1
   5    2    7 ar
   6    2    3 ar
   7    3    4 ar
   8    3   34 1
   9    4    5 ar
  10    4   35 1
  11    5    6 ar
  12    6    7 ar
  13    6   36 1
  14    7    8 1
  15    8   30 1
  16    8    9 2
  17    9   10 1
  18    9   37 1
  19   10   20 1
  20   10   11 1
  21   11   12 2
  22   11   29 1
  23   12   13 1
  24   13   14 1
  25   13   20 2
  26   14   15 1
  27   14   38 1
  28   15   19 1
  29   15   16 2
  30   16   17 1
  31   17   18 1
  32   17   39 1
  33   18   19 2
  34   18   40 1
  35   19   41 1
  36   20   21 1
  37   21   28 ar
  38   21   22 ar
  39   22   23 ar
  40   23   24 1
  41   23   25 ar
  42   24   42 1
  43   24   43 1
  44   24   44 1
  45   25   26 ar
  46   26   27 1
  47   26   28 ar
  48   27   45 1
  49   27   46 1
  50   29   30 2
  51   29   47 1
  52   30   48 1


@<TRIPOS>MOLECULE
C1=CN=C(C2=C1N(C=N2)C3C=C(C(C3O)O)CO)N
33    35    1     0     0
SMALL
USER_CHARGES
@<TRIPOS>ATOM
1      N1     -0.0168    1.3844    0.0097 N.pl3    1 ZINC000018150621   -0.8300
2      C2      0.0021   -0.0041    0.0020 C.ar     1 ZINC000018150621    0.4800
3      C3     -1.2032   -0.7224    0.0038 C.ar     1 ZINC000018150621   -0.0600
4      N4     -2.5145   -0.3788    0.0123 N.2      1 ZINC000018150621   -0.4700
5      C5     -3.2472   -1.4543    0.0096 C.2      1 ZINC000018150621    0.2600
6      N6     -2.4518   -2.5607   -0.0007 N.pl3    1 ZINC000018150621   -0.4600
7      C7     -2.9033   -3.9544   -0.0061 C.3      1 ZINC000018150621    0.1700
8      H8     -2.0479   -4.6297   -0.0272 H        1 ZINC000018150621    0.1200
9      C9     -3.8058   -4.2108   -1.1905 C.2      1 ZINC000018150621   -0.1400
10     C10    -5.0598   -4.2353   -0.8292 C.2      1 ZINC000018150621   -0.1500
11     C11    -6.2136   -4.4688   -1.7701 C.3      1 ZINC000018150621    0.1200
12     O12    -5.7162   -4.6545   -3.0969 O.3      1 ZINC000018150621   -0.5700
13     C13    -5.2027   -3.9993    0.6564 C.3      1 ZINC000018150621    0.1000
14     H14    -5.5221   -2.9751    0.8492 H        1 ZINC000018150621    0.0800
15     O15    -6.1343   -4.9247    1.2201 O.3      1 ZINC000018150621   -0.5500
16     C16    -3.7846   -4.2400    1.2320 C.3      1 ZINC000018150621    0.1000
17     H17    -3.6682   -5.2705    1.5675 H        1 ZINC000018150621    0.1000
18     O18    -3.4982   -3.3236    2.2904 O.3      1 ZINC000018150621   -0.5400
19     C19    -1.1478   -2.1270   -0.0046 C.ar     1 ZINC000018150621    0.1300
20     C20     0.0999   -2.7463   -0.0143 C.ar     1 ZINC000018150621   -0.2300
21     C21     1.2258   -1.9717   -0.0154 C.ar     1 ZINC000018150621    0.1600
22     N22     1.1560   -0.6500   -0.0125 N.ar     1 ZINC000018150621   -0.5600
23     H23     0.8166    1.8808    0.0044 H        1 ZINC000018150621    0.4100
24     H24    -0.8633    1.8580    0.0162 H        1 ZINC000018150621    0.4100
25     H25    -4.3271   -1.4679    0.0154 H        1 ZINC000018150621    0.2000
26     H26    -3.4588   -4.3546   -2.2031 H        1 ZINC000018150621    0.1500
27     H27    -6.7614   -5.3585   -1.4596 H        1 ZINC000018150621    0.0700
28     H28    -6.8797   -3.6062   -1.7493 H        1 ZINC000018150621    0.0600
29     H29    -6.4054   -4.8102   -3.7571 H        1 ZINC000018150621    0.3900
30     H30    -7.0285   -4.8515    0.8593 H        1 ZINC000018150621    0.3800
31     H31    -4.0946   -3.3987    3.0479 H        1 ZINC000018150621    0.3900
32     H32     0.1765   -3.8236   -0.0206 H        1 ZINC000018150621    0.1300
33     H33     2.1946   -2.4490   -0.0226 H        1 ZINC000018150621    0.1600
@<TRIPOS>BOND
1     1     2     1
2     1     23    1
3     1     24    1
4     2     22    ar
5     2     3     ar
6     3     19    ar
7     3     4     1
8     4     5     2
9     5     6     1
10    5     25    1
11    6     7     1
12    6     19    1
13    7     8     1
14    7     16    1
15    7     9     1
16    9     10    2
17    9     26    1
18    10    11    1
19    10    13    1
20    11    12    1
21    11    27    1
22    11    28    1
23    12    29    1
24    13    14    1
25    13    15    1
26    13    16    1
27    15    30    1
28    16    17    1
29    16    18    1
30    18    31    1
31    19    20    ar
32    20    21    ar
33    20    32    1
34    21    22    ar
35    21    33    1
@<TRIPOS>SUBSTRUCTURE
1   ZINC000018150621 1     RESIDUE    1   A     ZIN   1


@<TRIPOS>MOLECULE
C1CN(CCC1(C(=O)NC(CCO)C2=CC=C(C=C2)Cl)N)C3=NC=NC4=C3C=CN4
56    59    1     0     0
SMALL
USER_CHARGES
@<TRIPOS>ATOM
1      N1      0.1709    1.0071    0.1305 N.4      1 ZINC000043204023   -0.6300
2      H2      0.1846   -0.0018    0.1246 H        1 ZINC000043204023    0.4500
3      H3      1.1069    1.3553    0.2743 H        1 ZINC000043204023    0.4400
4      H4     -0.1813    1.3438   -0.7530 H        1 ZINC000043204023    0.4300
5      C5     -0.6992    1.4786    1.2162 C.3      1 ZINC000043204023    0.0400
6      C6     -0.7230    2.9854    1.2241 C.2      1 ZINC000043204023    0.5000
7      O7     -0.7218    3.5863    2.2775 O.2      1 ZINC000043204023   -0.4600
8      N8     -0.7457    3.6651    0.0605 N.am     1 ZINC000043204023   -0.7200
9      C9     -0.7689    5.1299    0.0682 C.3      1 ZINC000043204023    0.1900
10     H10    -1.3553    5.4795    0.9179 H        1 ZINC000043204023    0.1100
11     C11     0.6611    5.6620    0.1820 C.3      1 ZINC000043204023   -0.1300
12     C12     1.2489    5.2593    1.5360 C.3      1 ZINC000043204023    0.0800
13     O13     2.5845    5.7563    1.6422 O.3      1 ZINC000043204023   -0.5700
14     C14    -1.3904    5.6292   -1.2106 C.ar     1 ZINC000043204023   -0.1000
15     C15    -1.1041    5.0020   -2.4088 C.ar     1 ZINC000043204023   -0.1100
16     C16    -1.6738    5.4595   -3.5821 C.ar     1 ZINC000043204023   -0.1000
17     C17    -2.5308    6.5453   -3.5571 C.ar     1 ZINC000043204023   -0.0300
18     Cl18   -3.2472    7.1201   -5.0302 Cl       1 ZINC000043204023   -0.0500
19     C19    -2.8170    7.1726   -2.3576 C.ar     1 ZINC000043204023   -0.1000
20     C20    -2.2511    6.7107   -1.1843 C.ar     1 ZINC000043204023   -0.0900
21     C21    -2.1182    0.9442    1.0034 C.3      1 ZINC000043204023   -0.1300
22     C22    -3.0053    1.3878    2.1689 C.3      1 ZINC000043204023    0.0600
23     N23    -2.4533    0.8741    3.4290 N.3      1 ZINC000043204023   -0.4700
24     C24    -3.3001    1.1460    4.4884 C.ar     1 ZINC000043204023    0.4000
25     C25    -2.9695    0.7501    5.7932 C.ar     1 ZINC000043204023   -0.2200
26     C26    -1.8454    0.0473    6.4090 C.2      1 ZINC000043204023   -0.1800
27     C27    -2.1109   -0.0335    7.7231 C.2      1 ZINC000043204023    0.0700
28     N28    -3.3159    0.5628    7.9912 N.pl3    1 ZINC000043204023   -0.5700
29     C29    -3.8644    1.0501    6.8369 C.ar     1 ZINC000043204023    0.3300
30     N30    -4.9900    1.6992    6.5435 N.ar     1 ZINC000043204023   -0.5400
31     C31    -5.2589    2.0518    5.3050 C.ar     1 ZINC000043204023    0.3400
32     N32    -4.4455    1.7940    4.2968 N.ar     1 ZINC000043204023   -0.5700
33     C33    -1.1095    1.4112    3.6781 C.3      1 ZINC000043204023    0.0300
34     C34    -0.1658    0.9682    2.5577 C.3      1 ZINC000043204023   -0.1200
35     H35    -0.7467    3.1844   -0.7820 H        1 ZINC000043204023    0.3900
36     H36     1.2701    5.2411   -0.6181 H        1 ZINC000043204023    0.0800
37     H37     0.6521    6.7487    0.0985 H        1 ZINC000043204023    0.1000
38     H38     0.6399    5.6802    2.3360 H        1 ZINC000043204023    0.0600
39     H39     1.2579    4.1726    1.6194 H        1 ZINC000043204023    0.0300
40     H40     3.0202    5.5379    2.4774 H        1 ZINC000043204023    0.3900
41     H41    -0.4348    4.1546   -2.4282 H        1 ZINC000043204023    0.1200
42     H42    -1.4498    4.9696   -4.5181 H        1 ZINC000043204023    0.1400
43     H43    -3.4857    8.0204   -2.3376 H        1 ZINC000043204023    0.1400
44     H44    -2.4747    7.2000   -0.2478 H        1 ZINC000043204023    0.1400
45     H45    -2.5195    1.3387    0.0699 H        1 ZINC000043204023    0.1000
46     H46    -2.0941   -0.1446    0.9584 H        1 ZINC000043204023    0.1200
47     H47    -3.0400    2.4767    2.2048 H        1 ZINC000043204023    0.0700
48     H48    -4.0129    0.9969    2.0277 H        1 ZINC000043204023    0.1200
49     H49    -0.9698   -0.3336    5.9044 H        1 ZINC000043204023    0.1500
50     H50    -1.4712   -0.4991    8.4582 H        1 ZINC000043204023    0.1900
51     H51    -3.7202    0.6291    8.8704 H        1 ZINC000043204023    0.4300
52     H52    -6.1814    2.5765    5.1048 H        1 ZINC000043204023    0.2000
53     H53    -1.1531    2.4999    3.7070 H        1 ZINC000043204023    0.1000
54     H54    -0.7402    1.0372    4.6330 H        1 ZINC000043204023    0.1100
55     H55    -0.1110   -0.1202    2.5371 H        1 ZINC000043204023    0.1100
56     H56     0.8278    1.3799    2.7346 H        1 ZINC000043204023    0.1000
@<TRIPOS>BOND
1     1     2     1
2     1     3     1
3     1     4     1
4     1     5     1
5     5     34    1
6     5     6     1
7     5     21    1
8     6     7     2
9     6     8     am
10    8     9     1
11    8     35    1
12    9     10    1
13    9     11    1
14    9     14    1
15    11    12    1
16    11    36    1
17    11    37    1
18    12    13    1
19    12    38    1
20    12    39    1
21    13    40    1
22    14    20    ar
23    14    15    ar
24    15    16    ar
25    15    41    1
26    16    17    ar
27    16    42    1
28    17    18    1
29    17    19    ar
30    19    20    ar
31    19    43    1
32    20    44    1
33    21    22    1
34    21    45    1
35    21    46    1
36    22    23    1
37    22    47    1
38    22    48    1
39    23    24    1
40    23    33    1
41    24    32    ar
42    24    25    ar
43    25    29    ar
44    25    26    1
45    26    27    2
46    26    49    1
47    27    28    1
48    27    50    1
49    28    29    1
50    28    51    1
51    29    30    ar
52    30    31    ar
53    31    32    ar
54    31    52    1
55    33    34    1
56    33    53    1
57    33    54    1
58    34    55    1
59    34    56    1
@<TRIPOS>SUBSTRUCTURE
1   ZINC000043204023 1     RESIDUE    1   A     ZIN   1


@<TRIPOS>MOLECULE
CC(C)(C#N)C1=CC=C(C=C1)N2C3=C4C=C(C=CC4=NC=C3N(C2=O)C)C5=CC6=CC=CC=C6N=C5
59    64    1     0     0
SMALL
USER_CHARGES
@<TRIPOS>ATOM
1      C1      0.6404    1.3557    0.1409 C.3      1 ZINC000024760115    0.1000
2      N2      0.2763   -0.0618    0.0741 N.am     1 ZINC000024760115   -0.5200
3      C3      0.4383   -0.8693   -0.9920 C.2      1 ZINC000024760115    0.6800
4      O4      0.9138   -0.5349   -2.0611 O.2      1 ZINC000024760115   -0.5300
5      N5     -0.0075   -2.1044   -0.6909 N.am     1 ZINC000024760115   -0.4800
6      C6     -0.0005   -3.2101   -1.5512 C.ar     1 ZINC000024760115    0.1300
7      C7     -1.0898   -3.4565   -2.3762 C.ar     1 ZINC000024760115   -0.0900
8      C8     -1.0798   -4.5471   -3.2236 C.ar     1 ZINC000024760115   -0.1000
9      C9      0.0137   -5.3932   -3.2509 C.ar     1 ZINC000024760115   -0.0600
10     C10     0.0214   -6.5823   -4.1767 C.3      1 ZINC000024760115    0.0800
11     C11     1.3359   -7.3478   -4.0127 C.3      1 ZINC000024760115   -0.1500
12     C12    -1.1513   -7.5032   -3.8338 C.3      1 ZINC000024760115   -0.1400
13     C13    -0.1076   -6.1212   -5.5687 C.1      1 ZINC000024760115    0.2100
14     N14    -0.2071   -5.7654   -6.6429 N.1      1 ZINC000024760115   -0.4200
15     C15     1.1002   -5.1502   -2.4309 C.ar     1 ZINC000024760115   -0.1000
16     C16     1.0982   -4.0585   -1.5848 C.ar     1 ZINC000024760115   -0.1000
17     C17    -0.4725   -2.0960    0.6110 C.ar     1 ZINC000024760115    0.1400
18     C18    -0.2911   -0.8082    1.1037 C.ar     1 ZINC000024760115    0.0200
19     C19    -0.6773   -0.5118    2.4106 C.ar     1 ZINC000024760115    0.1700
20     N20    -1.2098   -1.4223    3.1909 N.ar     1 ZINC000024760115   -0.4600
21     C21    -1.4117   -2.6796    2.7790 C.ar     1 ZINC000024760115    0.1300
22     C22    -1.9853   -3.6328    3.6389 C.ar     1 ZINC000024760115   -0.0800
23     C23    -2.1859   -4.9061    3.2096 C.ar     1 ZINC000024760115   -0.0900
24     C24    -1.8274   -5.2929    1.9093 C.ar     1 ZINC000024760115   -0.0300
25     C25    -2.0571   -6.6894    1.4658 C.ar     1 ZINC000024760115   -0.1000
26     C26    -1.6015   -7.1158    0.2081 C.ar     1 ZINC000024760115    0.1400
27     N27    -1.7905   -8.3418   -0.2095 N.ar     1 ZINC000024760115   -0.4600
28     C28    -2.4257   -9.2489    0.5401 C.ar     1 ZINC000024760115    0.1300
29     C29    -2.6187  -10.5613    0.0747 C.ar     1 ZINC000024760115   -0.0900
30     C30    -3.2679  -11.4674    0.8557 C.ar     1 ZINC000024760115   -0.1000
31     C31    -3.7484  -11.1176    2.1161 C.ar     1 ZINC000024760115   -0.1100
32     C32    -3.5810   -9.8570    2.6018 C.ar     1 ZINC000024760115   -0.1000
33     C33    -2.9153   -8.8953    1.8228 C.ar     1 ZINC000024760115   -0.1000
34     C34    -2.7186   -7.5855    2.2930 C.ar     1 ZINC000024760115   -0.0400
35     C35    -1.2612   -4.3785    1.0380 C.ar     1 ZINC000024760115   -0.0900
36     C36    -1.0438   -3.0634    1.4646 C.ar     1 ZINC000024760115   -0.0600
37     H37     1.6690    1.4506    0.4886 H        1 ZINC000024760115    0.0800
38     H38     0.5491    1.8013   -0.8497 H        1 ZINC000024760115    0.0900
39     H39    -0.0262    1.8698    0.8334 H        1 ZINC000024760115    0.0900
40     H40    -1.9443   -2.7963   -2.3550 H        1 ZINC000024760115    0.1300
41     H41    -1.9269   -4.7396   -3.8652 H        1 ZINC000024760115    0.1400
42     H42     1.4314   -7.6892   -2.9820 H        1 ZINC000024760115    0.0900
43     H43     1.3415   -8.2078   -4.6823 H        1 ZINC000024760115    0.0700
44     H44     2.1714   -6.6917   -4.2570 H        1 ZINC000024760115    0.0700
45     H45    -2.0878   -6.9579   -3.9506 H        1 ZINC000024760115    0.0700
46     H46    -1.1457   -8.3633   -4.5034 H        1 ZINC000024760115    0.0700
47     H47    -1.0558   -7.8446   -2.8031 H        1 ZINC000024760115    0.0900
48     H48     1.9529   -5.8125   -2.4548 H        1 ZINC000024760115    0.1500
49     H49     1.9472   -3.8690   -0.9448 H        1 ZINC000024760115    0.1300
50     H50    -0.5345    0.4896    2.7890 H        1 ZINC000024760115    0.1700
51     H51    -2.2668   -3.3522    4.6431 H        1 ZINC000024760115    0.1500
52     H52    -2.6268   -5.6305    3.8784 H        1 ZINC000024760115    0.1400
53     H53    -1.0832   -6.4155   -0.4302 H        1 ZINC000024760115    0.1600
54     H54    -2.2533  -10.8496   -0.8998 H        1 ZINC000024760115    0.1400
55     H55    -3.4134  -12.4740    0.4924 H        1 ZINC000024760115    0.1300
56     H56    -4.2604  -11.8561    2.7152 H        1 ZINC000024760115    0.1300
57     H57    -3.9574   -9.5975    3.5802 H        1 ZINC000024760115    0.1300
58     H58    -3.0753   -7.2845    3.2670 H        1 ZINC000024760115    0.1400
59     H59    -0.9865   -4.6784    0.0375 H        1 ZINC000024760115    0.1300
@<TRIPOS>BOND
1     1     2     1
2     1     37    1
3     1     38    1
4     1     39    1
5     2     18    1
6     2     3     am
7     3     4     2
8     3     5     am
9     5     6     1
10    5     17    1
11    6     16    ar
12    6     7     ar
13    7     8     ar
14    7     40    1
15    8     9     ar
16    8     41    1
17    9     10    1
18    9     15    ar
19    10    11    1
20    10    12    1
21    10    13    1
22    11    42    1
23    11    43    1
24    11    44    1
25    12    45    1
26    12    46    1
27    12    47    1
28    13    14    3
29    15    16    ar
30    15    48    1
31    16    49    1
32    17    36    ar
33    17    18    ar
34    18    19    ar
35    19    20    ar
36    19    50    1
37    20    21    ar
38    21    36    ar
39    21    22    ar
40    22    23    ar
41    22    51    1
42    23    24    ar
43    23    52    1
44    24    25    1
45    24    35    ar
46    25    34    ar
47    25    26    ar
48    26    27    ar
49    26    53    1
50    27    28    ar
51    28    33    ar
52    28    29    ar
53    29    30    ar
54    29    54    1
55    30    31    ar
56    30    55    1
57    31    32    ar
58    31    56    1
59    32    33    ar
60    32    57    1
61    33    34    ar
62    34    58    1
63    35    36    ar
64    35    59    1
@<TRIPOS>SUBSTRUCTURE
1   ZINC000024760115 1     RESIDUE    1   A     ZIN   1


@<TRIPOS>MOLECULE
CCNC(=O)C1=NOC(=C1C2=CC=C(C=C2)CN3CCOCC3)C4=CC(=C(C=C4O)O)C(C)C
65    68    1     0     0
SMALL
USER_CHARGES
@<TRIPOS>ATOM
1      C1     -0.0164    1.4861    0.6128 C.3      1 ZINC000100015656   -0.1700
2      C2      0.0011   -0.0408    0.5168 C.3      1 ZINC000100015656    0.1100
3      N3     -1.3705   -0.5372    0.3805 N.am     1 ZINC000100015656   -0.7200
4      C4     -1.6010   -1.8612    0.2785 C.2      1 ZINC000100015656    0.6000
5      O5     -0.6712   -2.6431    0.2996 O.2      1 ZINC000100015656   -0.5000
6      C6     -2.9886   -2.3634    0.1406 C.2      1 ZINC000100015656   -0.0200
7      N7     -4.0897   -1.6532    0.0961 N.2      1 ZINC000100015656   -0.3200
8      O8     -5.0771   -2.3359   -0.0217 O.3      1 ZINC000100015656    0.1300
9      C9     -4.8068   -3.6510   -0.0782 C.2      1 ZINC000100015656    0.0200
10     C10    -5.7785   -4.7498   -0.2194 C.ar     1 ZINC000100015656   -0.0700
11     C11    -6.8933   -4.8127    0.6207 C.ar     1 ZINC000100015656   -0.0500
12     C12    -7.7996   -5.8412    0.4852 C.ar     1 ZINC000100015656   -0.1100
13     C13    -9.0016   -5.9072    1.3917 C.3      1 ZINC000100015656   -0.0600
14     C14    -8.5384   -6.0100    2.8463 C.3      1 ZINC000100015656   -0.1500
15     C15    -9.8451   -4.6433    1.2132 C.3      1 ZINC000100015656   -0.1500
16     C16    -7.6094   -6.8181   -0.4852 C.ar     1 ZINC000100015656    0.1500
17     O17    -8.5078   -7.8286   -0.6128 O.3      1 ZINC000100015656   -0.4900
18     C18    -6.5057   -6.7647   -1.3245 C.ar     1 ZINC000100015656   -0.1700
19     C19    -5.5913   -5.7338   -1.2017 C.ar     1 ZINC000100015656    0.1600
20     O20    -4.5108   -5.6803   -2.0221 O.3      1 ZINC000100015656   -0.4800
21     C21    -3.4220   -3.7653    0.0182 C.2      1 ZINC000100015656   -0.0800
22     C22    -2.5927   -4.9918    0.0081 C.ar     1 ZINC000100015656    0.0000
23     C23    -2.6931   -5.9137    1.0502 C.ar     1 ZINC000100015656   -0.1000
24     C24    -1.9175   -7.0548    1.0351 C.ar     1 ZINC000100015656   -0.1100
25     C25    -1.0416   -7.2855   -0.0107 C.ar     1 ZINC000100015656   -0.0800
26     C26    -0.1975   -8.5339   -0.0209 C.3      1 ZINC000100015656    0.0900
27     N27    -0.9214   -9.6088   -0.7125 N.3      1 ZINC000100015656   -0.5300
28     C28    -2.3144   -9.6887   -0.2495 C.3      1 ZINC000100015656    0.0200
29     C29    -3.0464  -10.7790   -1.0364 C.3      1 ZINC000100015656    0.0600
30     O30    -2.3522  -12.0197   -0.8808 O.3      1 ZINC000100015656   -0.3900
31     C31    -0.9926  -11.9780   -1.3225 C.3      1 ZINC000100015656    0.0600
32     C32    -0.2398  -10.8998   -0.5385 C.3      1 ZINC000100015656    0.0200
33     C33    -0.9378   -6.3753   -1.0473 C.ar     1 ZINC000100015656   -0.1000
34     C34    -1.7118   -5.2330   -1.0463 C.ar     1 ZINC000100015656   -0.0600
35     H35     1.0041    1.8554    0.7142 H        1 ZINC000100015656    0.0800
36     H36    -0.4652    1.9018   -0.2893 H        1 ZINC000100015656    0.0600
37     H37    -0.6004    1.7888    1.4819 H        1 ZINC000100015656    0.0600
38     H38     0.5851   -0.3436   -0.3524 H        1 ZINC000100015656    0.0700
39     H39     0.4500   -0.4565    1.4189 H        1 ZINC000100015656    0.0700
40     H40    -2.1128    0.0870    0.3637 H        1 ZINC000100015656    0.4100
41     H41    -7.0441   -4.0556    1.3761 H        1 ZINC000100015656    0.1400
42     H42    -9.6002   -6.7822    1.1384 H        1 ZINC000100015656    0.0900
43     H43    -7.9398   -5.1350    3.0997 H        1 ZINC000100015656    0.0600
44     H44    -9.4078   -6.0578    3.5020 H        1 ZINC000100015656    0.0600
45     H45    -7.9375   -6.9105    2.9735 H        1 ZINC000100015656    0.0600
46     H46   -10.1751   -4.5701    0.1769 H        1 ZINC000100015656    0.0600
47     H47   -10.7145   -4.6910    1.8689 H        1 ZINC000100015656    0.0600
48     H48    -9.2466   -3.7683    1.4666 H        1 ZINC000100015656    0.0600
49     H49    -9.2299   -7.6377   -1.2269 H        1 ZINC000100015656    0.4000
50     H50    -6.3626   -7.5262   -2.0769 H        1 ZINC000100015656    0.1400
51     H51    -4.6367   -5.1232   -2.8024 H        1 ZINC000100015656    0.3900
52     H52    -3.3762   -5.7345    1.8673 H        1 ZINC000100015656    0.1200
53     H53    -1.9941   -7.7691    1.8415 H        1 ZINC000100015656    0.1200
54     H54     0.7398   -8.3344   -0.5402 H        1 ZINC000100015656    0.0900
55     H55     0.0129   -8.8386    1.0043 H        1 ZINC000100015656    0.0400
56     H56    -2.3315   -9.9327    0.8127 H        1 ZINC000100015656    0.0400
57     H57    -2.8072   -8.7300   -0.4113 H        1 ZINC000100015656    0.1000
58     H58    -4.0633  -10.8809   -0.6574 H        1 ZINC000100015656    0.1000
59     H59    -3.0761  -10.5084   -2.0919 H        1 ZINC000100015656    0.0600
60     H60    -0.5241  -12.9470   -1.1504 H        1 ZINC000100015656    0.1000
61     H61    -0.9626  -11.7422   -2.3863 H        1 ZINC000100015656    0.0600
62     H62     0.7818  -10.8252   -0.9113 H        1 ZINC000100015656    0.0900
63     H63    -0.2237  -11.1632    0.5191 H        1 ZINC000100015656    0.0400
64     H64    -0.2525   -6.5611   -1.8611 H        1 ZINC000100015656    0.1200
65     H65    -1.6299   -4.5232   -1.8561 H        1 ZINC000100015656    0.1200
@<TRIPOS>BOND
1     1     2     1
2     1     35    1
3     1     36    1
4     1     37    1
5     2     3     1
6     2     38    1
7     2     39    1
8     3     4     am
9     3     40    1
10    4     5     2
11    4     6     1
12    6     21    1
13    6     7     2
14    7     8     1
15    8     9     1
16    9     10    1
17    9     21    2
18    10    19    ar
19    10    11    ar
20    11    12    ar
21    11    41    1
22    12    13    1
23    12    16    ar
24    13    14    1
25    13    15    1
26    13    42    1
27    14    43    1
28    14    44    1
29    14    45    1
30    15    46    1
31    15    47    1
32    15    48    1
33    16    17    1
34    16    18    ar
35    17    49    1
36    18    19    ar
37    18    50    1
38    19    20    1
39    20    51    1
40    21    22    1
41    22    34    ar
42    22    23    ar
43    23    24    ar
44    23    52    1
45    24    25    ar
46    24    53    1
47    25    26    1
48    25    33    ar
49    26    27    1
50    26    54    1
51    26    55    1
52    27    32    1
53    27    28    1
54    28    29    1
55    28    56    1
56    28    57    1
57    29    30    1
58    29    58    1
59    29    59    1
60    30    31    1
61    31    32    1
62    31    60    1
63    31    61    1
64    32    62    1
65    32    63    1
66    33    34    ar
67    33    64    1
68    34    65    1
@<TRIPOS>SUBSTRUCTURE
1   ZINC000100015656 1     RESIDUE    1   A     ZIN   1


@<TRIPOS>MOLECULE
C1COCCN1C2=NC(=NC(=C2)C3=CN=C(C=C3C(F)(F)F)N)N4CCOCC4
50    53    1     0     0
SMALL
USER_CHARGES
@<TRIPOS>ATOM
1      N1     -0.0167    1.3835    0.0096 N.pl3    1 ZINC000043154039   -0.8400
2      C2      0.0021   -0.0041    0.0020 C.ar     1 ZINC000043154039    0.4300
3      C3     -1.1996   -0.7076    0.0039 C.ar     1 ZINC000043154039   -0.2000
4      C4     -1.1727   -2.0877   -0.0042 C.ar     1 ZINC000043154039   -0.0500
5      C5     -2.4518   -2.8845   -0.0029 C.3      1 ZINC000043154039    0.5200
6      F6     -3.5450   -2.0116    0.0071 F        1 ZINC000043154039   -0.1800
7      F7     -2.5041   -3.6842   -1.1496 F        1 ZINC000043154039   -0.1600
8      F8     -2.4937   -3.6974    1.1349 F        1 ZINC000043154039   -0.1600
9      C9      0.0718   -2.7294   -0.0140 C.ar     1 ZINC000043154039   -0.1300
10     C10     0.1540   -4.2093   -0.0235 C.ar     1 ZINC000043154039    0.2600
11     C11     1.3921   -4.8480   -0.0275 C.ar     1 ZINC000043154039   -0.2600
12     C12     1.4185   -6.2417   -0.0365 C.ar     1 ZINC000043154039    0.3900
13     N13     2.6265   -6.9210   -0.0403 N.3      1 ZINC000043154039   -0.4700
14     C14     3.4589   -6.5093   -1.1801 C.3      1 ZINC000043154039    0.0200
15     C15     4.8037   -7.2377   -1.1124 C.3      1 ZINC000043154039    0.0600
16     O16     4.5751   -8.6493   -1.0909 O.3      1 ZINC000043154039   -0.3800
17     C17     3.7684   -9.0852    0.0066 C.3      1 ZINC000043154039    0.0600
18     C18     2.4130   -8.3755   -0.0497 C.3      1 ZINC000043154039    0.0300
19     N19     0.2692   -6.9108   -0.0408 N.ar     1 ZINC000043154039   -0.5700
20     C20    -0.8904   -6.2700   -0.0367 C.ar     1 ZINC000043154039    0.5400
21     N21    -2.0646   -7.0027   -0.0415 N.3      1 ZINC000043154039   -0.4600
22     C22    -2.1091   -7.9192   -1.1901 C.3      1 ZINC000043154039    0.0300
23     C23    -3.3933   -8.7501   -1.1236 C.3      1 ZINC000043154039    0.0600
24     O24    -4.5217   -7.8723   -1.0874 O.3      1 ZINC000043154039   -0.3800
25     C25    -4.5110   -6.9662    0.0190 C.3      1 ZINC000043154039    0.0600
26     C26    -3.2382   -6.1172   -0.0358 C.3      1 ZINC000043154039    0.0100
27     N27    -0.9563   -4.9483   -0.0227 N.ar     1 ZINC000043154039   -0.5700
28     C28     1.2313   -1.9578   -0.0153 C.ar     1 ZINC000043154039    0.2000
29     N29     1.1633   -0.6422   -0.0125 N.ar     1 ZINC000043154039   -0.5200
30     H30     0.8166    1.8799    0.0044 H        1 ZINC000043154039    0.4100
31     H31    -0.8633    1.8570    0.0162 H        1 ZINC000043154039    0.4100
32     H32    -2.1417   -0.1797    0.0120 H        1 ZINC000043154039    0.1500
33     H33     2.3090   -4.2773   -0.0242 H        1 ZINC000043154039    0.1500
34     H34     2.9530   -6.7647   -2.1112 H        1 ZINC000043154039    0.0600
35     H35     3.6255   -5.4328   -1.1390 H        1 ZINC000043154039    0.1000
36     H36     5.4021   -6.9791   -1.9860 H        1 ZINC000043154039    0.1100
37     H37     5.3332   -6.9409   -0.2070 H        1 ZINC000043154039    0.0700
38     H38     3.6179  -10.1628   -0.0577 H        1 ZINC000043154039    0.1100
39     H39     4.2678   -8.8422    0.9445 H        1 ZINC000043154039    0.0600
40     H40     1.8162   -8.6613    0.8164 H        1 ZINC000043154039    0.1000
41     H41     1.8905   -8.6607   -0.9628 H        1 ZINC000043154039    0.0600
42     H42    -2.0954   -7.3437   -2.1157 H        1 ZINC000043154039    0.0500
43     H43    -1.2445   -8.5824   -1.1602 H        1 ZINC000043154039    0.1000
44     H44    -3.4583   -9.3904   -2.0033 H        1 ZINC000043154039    0.1100
45     H45    -3.3822   -9.3659   -0.2244 H        1 ZINC000043154039    0.0600
46     H46    -5.3845   -6.3163   -0.0342 H        1 ZINC000043154039    0.1100
47     H47    -4.5324   -7.5301    0.9515 H        1 ZINC000043154039    0.0600
48     H48    -3.1978   -5.4650    0.8366 H        1 ZINC000043154039    0.1100
49     H49    -3.2425   -5.5129   -0.9430 H        1 ZINC000043154039    0.0800
50     H50     2.1962   -2.4431   -0.0226 H        1 ZINC000043154039    0.1700
@<TRIPOS>BOND
1     1     2     1
2     1     30    1
3     1     31    1
4     2     29    ar
5     2     3     ar
6     3     4     ar
7     3     32    1
8     4     5     1
9     4     9     ar
10    5     6     1
11    5     7     1
12    5     8     1
13    9     10    1
14    9     28    ar
15    10    27    ar
16    10    11    ar
17    11    12    ar
18    11    33    1
19    12    13    1
20    12    19    ar
21    13    18    1
22    13    14    1
23    14    15    1
24    14    34    1
25    14    35    1
26    15    16    1
27    15    36    1
28    15    37    1
29    16    17    1
30    17    18    1
31    17    38    1
32    17    39    1
33    18    40    1
34    18    41    1
35    19    20    ar
36    20    21    1
37    20    27    ar
38    21    26    1
39    21    22    1
40    22    23    1
41    22    42    1
42    22    43    1
43    23    24    1
44    23    44    1
45    23    45    1
46    24    25    1
47    25    26    1
48    25    46    1
49    25    47    1
50    26    48    1
51    26    49    1
52    28    29    ar
53    28    50    1
@<TRIPOS>SUBSTRUCTURE
1   ZINC000043154039 1     RESIDUE    1   A     ZIN   1


@<TRIPOS>MOLECULE
C1COCCN1C2=NC(=NC3=C2OC4=C3C=CC=N4)C5=CC(=CC=C5)O
42    46    1     0     0
SMALL
USER_CHARGES
@<TRIPOS>ATOM
1      O1     -0.0164    1.3549    0.0095 O.3      1 ZINC000003963016   -0.5000
2      C2      0.0021   -0.0041    0.0020 C.ar     1 ZINC000003963016    0.1000
3      C3      0.0058   -0.6913   -1.2038 C.ar     1 ZINC000003963016   -0.1200
4      C4      0.0245   -2.0737   -1.2162 C.ar     1 ZINC000003963016   -0.1100
5      C5      0.0401   -2.7781   -0.0295 C.ar     1 ZINC000003963016   -0.0800
6      C6      0.0369   -2.0956    1.1860 C.ar     1 ZINC000003963016   -0.0300
7      C7      0.0541   -2.8503    2.4629 C.ar     1 ZINC000003963016    0.3800
8      N8      0.0453   -2.1812    3.6057 N.ar     1 ZINC000003963016   -0.4900
9      C9      0.0602   -2.8283    4.7667 C.ar     1 ZINC000003963016    0.1700
10     C10     0.0854   -4.2285    4.7766 C.ar     1 ZINC000003963016   -0.0400
11     O11     0.0971   -4.6523    6.0572 O.3      1 ZINC000003963016   -0.1700
12     C12     0.0812   -3.6160    6.9225 C.ar     1 ZINC000003963016    0.3100
13     C13     0.0574   -2.4235    6.1815 C.ar     1 ZINC000003963016   -0.1800
14     C14     0.0380   -1.1993    6.8453 C.ar     1 ZINC000003963016    0.0100
15     C15     0.0429   -1.2071    8.2294 C.ar     1 ZINC000003963016   -0.2000
16     C16     0.0668   -2.4194    8.8983 C.ar     1 ZINC000003963016    0.1700
17     N17     0.0845   -3.5638    8.2479 N.ar     1 ZINC000003963016   -0.4800
18     C18     0.0938   -4.8947    3.5441 C.ar     1 ZINC000003963016    0.4000
19     N19     0.1186   -6.2801    3.4917 N.3      1 ZINC000003963016   -0.4700
20     C20     1.2732   -6.8146    4.2282 C.3      1 ZINC000003963016    0.0200
21     C21     1.2288   -8.3446    4.1953 C.3      1 ZINC000003963016    0.0700
22     O22     1.2023   -8.7866    2.8355 O.3      1 ZINC000003963016   -0.3800
23     C23     0.0903   -8.2853    2.0888 C.3      1 ZINC000003963016    0.0600
24     C24     0.1232   -6.7547    2.1003 C.3      1 ZINC000003963016    0.0300
25     N25     0.0724   -4.1775    2.4275 N.ar     1 ZINC000003963016   -0.5200
26     C26     0.0229   -0.7030    1.1980 C.ar     1 ZINC000003963016   -0.0900
27     H27     0.8616    1.7602    0.0033 H        1 ZINC000003963016    0.3900
28     H28    -0.0063   -0.1446   -2.1351 H        1 ZINC000003963016    0.1300
29     H29     0.0266   -2.6037   -2.1572 H        1 ZINC000003963016    0.1400
30     H30     0.0543   -3.8580   -0.0426 H        1 ZINC000003963016    0.1400
31     H31     0.0199   -0.2699    6.2955 H        1 ZINC000003963016    0.1500
32     H32     0.0286   -0.2788    8.7812 H        1 ZINC000003963016    0.1600
33     H33     0.0706   -2.4261    9.9783 H        1 ZINC000003963016    0.1800
34     H34     2.1951   -6.4671    3.7617 H        1 ZINC000003963016    0.0600
35     H35     1.2360   -6.4715    5.2621 H        1 ZINC000003963016    0.1000
36     H36     2.1132   -8.7451    4.6910 H        1 ZINC000003963016    0.1100
37     H37     0.3332   -8.6938    4.7092 H        1 ZINC000003963016    0.0700
38     H38     0.1512   -8.6429    1.0609 H        1 ZINC000003963016    0.1100
39     H39    -0.8384   -8.6328    2.5413 H        1 ZINC000003963016    0.0600
40     H40    -0.7536   -6.3679    1.5809 H        1 ZINC000003963016    0.1000
41     H41     1.0266   -6.4063    1.5998 H        1 ZINC000003963016    0.0700
42     H42     0.0204   -0.1696    2.1370 H        1 ZINC000003963016    0.1400
@<TRIPOS>BOND
1     1     2     1
2     1     27    1
3     2     26    ar
4     2     3     ar
5     3     4     ar
6     3     28    1
7     4     5     ar
8     4     29    1
9     5     6     ar
10    5     30    1
11    6     7     1
12    6     26    ar
13    7     25    ar
14    7     8     ar
15    8     9     ar
16    9     13    1
17    9     10    ar
18    10    11    1
19    10    18    ar
20    11    12    1
21    12    17    ar
22    12    13    ar
23    13    14    ar
24    14    15    ar
25    14    31    1
26    15    16    ar
27    15    32    1
28    16    17    ar
29    16    33    1
30    18    19    1
31    18    25    ar
32    19    24    1
33    19    20    1
34    20    21    1
35    20    34    1
36    20    35    1
37    21    22    1
38    21    36    1
39    21    37    1
40    22    23    1
41    23    24    1
42    23    38    1
43    23    39    1
44    24    40    1
45    24    41    1
46    26    42    1
@<TRIPOS>SUBSTRUCTURE
1   ZINC000003963016 1     RESIDUE    1   A     ZIN   1


@<TRIPOS>MOLECULE
C1=CC(=CC=C1C=CC2=CC(=CC(=C2)O)O)O
  29   30    0    0    0
SMALL
USER_CHARGES
NO_NAME
@<TRIPOS>ATOM
    1 O1       -0.0163     1.3543     0.0095 O.3    1 <0>      -0.5000
    2 C2        0.0021    -0.0041     0.0020 C.ar   1 <0>       0.1100
    3 C3        0.0057    -0.6897    -1.2060 C.ar   1 <0>      -0.1400
    4 C4        0.0244    -2.0675    -1.2186 C.ar   1 <0>      -0.0900
    5 C5        0.0397    -2.7751    -0.0132 C.ar   1 <0>      -0.0700
    6 C6        0.0601    -4.2484    -0.0213 C.2    1 <0>      -0.0900
    7 C7        0.0748    -4.9260     1.1377 C.2    1 <0>      -0.1100
    8 C8        0.0953    -6.3997     1.1296 C.ar   1 <0>      -0.0200
    9 C9        0.1053    -7.0937    -0.0826 C.ar   1 <0>      -0.1500
   10 C10       0.1250    -8.4782    -0.0849 C.ar   1 <0>       0.1300
   11 O11       0.1348    -9.1545    -1.2637 O.3    1 <0>      -0.5000
   12 C12       0.1353    -9.1763     1.1143 C.ar   1 <0>      -0.1700
   13 C13       0.1254    -8.4915     2.3212 C.ar   1 <0>       0.1300
   14 O14       0.1360    -9.1807     3.4924 O.3    1 <0>      -0.5000
   15 C15       0.1106    -7.1069     2.3341 C.ar   1 <0>      -0.1400
   16 C16       0.0359    -2.0807     1.1999 C.ar   1 <0>      -0.0900
   17 C17       0.0230    -0.7028     1.2023 C.ar   1 <0>      -0.1400
   18 H18       0.8616     1.7596     0.0033 H      1 <0>       0.3900
   19 H19      -0.0065    -0.1421    -2.1368 H      1 <0>       0.1300
   20 H20       0.0268    -2.5998    -2.1583 H      1 <0>       0.1300
   21 H21       0.0633    -4.7832    -0.9596 H      1 <0>       0.1300
   22 H22       0.0716    -4.3911     2.0760 H      1 <0>       0.1300
   23 H23       0.0973    -6.5513    -1.0164 H      1 <0>       0.1400
   24 H24       1.0209    -9.3377    -1.6047 H      1 <0>       0.3900
   25 H25       0.1507   -10.2562     1.1084 H      1 <0>       0.1400
   26 H26       1.0223    -9.3670     3.8312 H      1 <0>       0.3900
   27 H27       0.1029    -6.5748     3.2739 H      1 <0>       0.1400
   28 H28       0.0477    -2.6231     2.1337 H      1 <0>       0.1300
   29 H29       0.0204    -0.1653     2.1391 H      1 <0>       0.1300
@<TRIPOS>BOND
   1    1    2 1
   2    1   18 1
   3    2   17 ar
   4    2    3 ar
   5    3    4 ar
   6    3   19 1
   7    4    5 ar
   8    4   20 1
   9    5    6 1
  10    5   16 ar
  11    6    7 2
  12    6   21 1
  13    7    8 1
  14    7   22 1
  15    8   15 ar
  16    8    9 ar
  17    9   10 ar
  18    9   23 1
  19   10   11 1
  20   10   12 ar
  21   11   24 1
  22   12   13 ar
  23   12   25 1
  24   13   14 1
  25   13   15 ar
  26   14   26 1
  27   15   27 1
  28   16   17 ar
  29   16   28 1
  30   17   29 1


@<TRIPOS>MOLECULE
COC1=C(C=CC(=C1)C=CC(=O)CC(=O)C=CC2=CC(=C(C=C2)O)OC)O
47    48    1     0     0
SMALL
USER_CHARGES
@<TRIPOS>ATOM
1      C1     -0.0173    1.4248    0.0099 C.3      1 ZINC000000899824    0.0200
2      O2      0.0021   -0.0041    0.0020 O.3      1 ZINC000000899824   -0.3100
3      C3     -1.2011   -0.6379    0.0101 C.ar     1 ZINC000000899824    0.1000
4      C4     -2.3683    0.0982    0.0195 C.ar     1 ZINC000000899824   -0.1700
5      C5     -3.6061   -0.5585    0.0278 C.ar     1 ZINC000000899824   -0.0600
6      C6     -4.8515    0.2183    0.0373 C.2      1 ZINC000000899824    0.0000
7      C7     -6.0479   -0.4192    0.0454 C.2      1 ZINC000000899824   -0.2400
8      C8     -7.2424    0.3259    0.0545 C.2      1 ZINC000000899824    0.3700
9      O9     -7.2010    1.5399    0.0552 O.2      1 ZINC000000899824   -0.4300
10     C10    -8.5723   -0.3828    0.0635 C.3      1 ZINC000000899824   -0.2200
11     C11    -9.6837    0.6349    0.0722 C.2      1 ZINC000000899824    0.3700
12     O12    -9.4212    1.8210    0.0713 O.2      1 ZINC000000899824   -0.4300
13     C13   -11.0262    0.2111    0.0815 C.2      1 ZINC000000899824   -0.2400
14     C14   -12.0260    1.1266    0.0894 C.2      1 ZINC000000899824    0.0000
15     C15   -13.4257    0.6847    0.0990 C.ar     1 ZINC000000899824   -0.0500
16     C16   -13.7307   -0.6820    0.1059 C.ar     1 ZINC000000899824   -0.1200
17     C17   -15.0451   -1.0935    0.1155 C.ar     1 ZINC000000899824   -0.1100
18     C18   -16.0700   -0.1565    0.1182 C.ar     1 ZINC000000899824    0.0900
19     O19   -17.3638   -0.5687    0.1281 O.3      1 ZINC000000899824   -0.4800
20     C20   -15.7746    1.2071    0.1114 C.ar     1 ZINC000000899824    0.1000
21     O21   -16.7819    2.1208    0.1146 O.3      1 ZINC000000899824   -0.3100
22     C22   -16.4071    3.4997    0.1071 C.3      1 ZINC000000899824    0.0200
23     C23   -14.4607    1.6291    0.1072 C.ar     1 ZINC000000899824   -0.1700
24     C24    -3.6513   -1.9581    0.0265 C.ar     1 ZINC000000899824   -0.1200
25     C25    -2.4809   -2.6842    0.0171 C.ar     1 ZINC000000899824   -0.1100
26     C26    -1.2549   -2.0321    0.0031 C.ar     1 ZINC000000899824    0.0900
27     O27    -0.1046   -2.7537   -0.0066 O.3      1 ZINC000000899824   -0.4800
28     H28     1.0053    1.8021    0.0021 H        1 ZINC000000899824    0.1000
29     H29    -0.5445    1.7859   -0.8732 H        1 ZINC000000899824    0.0600
30     H30    -0.5275    1.7763    0.9067 H        1 ZINC000000899824    0.0600
31     H31    -2.3279    1.1774    0.0208 H        1 ZINC000000899824    0.1400
32     H32    -4.8147    1.2977    0.0380 H        1 ZINC000000899824    0.1400
33     H33    -6.0846   -1.4985    0.0448 H        1 ZINC000000899824    0.1400
34     H34    -8.6577   -1.0064   -0.8264 H        1 ZINC000000899824    0.1300
35     H35    -8.6450   -1.0078    0.9535 H        1 ZINC000000899824    0.1300
36     H36   -11.2596   -0.8434    0.0823 H        1 ZINC000000899824    0.1400
37     H37   -11.7926    2.1811    0.0886 H        1 ZINC000000899824    0.1400
38     H38   -12.9357   -1.4130    0.1035 H        1 ZINC000000899824    0.1400
39     H39   -15.2792   -2.1478    0.1204 H        1 ZINC000000899824    0.1400
40     H40   -17.7329   -0.6846    1.0143 H        1 ZINC000000899824    0.3900
41     H41   -17.3034    4.1199    0.1107 H        1 ZINC000000899824    0.1000
42     H42   -15.8102    3.7188    0.9925 H        1 ZINC000000899824    0.0600
43     H43   -15.8217    3.7123   -0.7874 H        1 ZINC000000899824    0.0600
44     H44   -14.2309    2.6844    0.1022 H        1 ZINC000000899824    0.1400
45     H45    -4.6033   -2.4679    0.0333 H        1 ZINC000000899824    0.1400
46     H46    -2.5168   -3.7636    0.0165 H        1 ZINC000000899824    0.1400
47     H47     0.2197   -2.9650   -0.8927 H        1 ZINC000000899824    0.3900
@<TRIPOS>BOND
1     1     2     1
2     1     28    1
3     1     29    1
4     1     30    1
5     2     3     1
6     3     26    ar
7     3     4     ar
8     4     5     ar
9     4     31    1
10    5     6     1
11    5     24    ar
12    6     7     2
13    6     32    1
14    7     8     1
15    7     33    1
16    8     9     2
17    8     10    1
18    10    11    1
19    10    34    1
20    10    35    1
21    11    12    2
22    11    13    1
23    13    14    2
24    13    36    1
25    14    15    1
26    14    37    1
27    15    23    ar
28    15    16    ar
29    16    17    ar
30    16    38    1
31    17    18    ar
32    17    39    1
33    18    19    1
34    18    20    ar
35    19    40    1
36    20    21    1
37    20    23    ar
38    21    22    1
39    22    41    1
40    22    42    1
41    22    43    1
42    23    44    1
43    24    25    ar
44    24    45    1
45    25    26    ar
46    25    46    1
47    26    27    1
48    27    47    1
@<TRIPOS>SUBSTRUCTURE
1   ZINC000000899824 1     RESIDUE    1   A     ZIN   1


@<TRIPOS>MOLECULE
C1=C(C=C(C(=C1O)O)O)C(=O)O
  17   17    0    0    0
SMALL
USER_CHARGES
NO_NAME
@<TRIPOS>ATOM
    1 O1        0.0021    -0.0041     0.0020 O.co2  1 <0>      -0.6800
    2 C2       -0.0145     1.2192     0.0087 C.2    1 <0>       0.5200
    3 O3        1.0365     1.8452     0.0021 O.co2  1 <0>      -0.6800
    4 C4       -1.2996     1.9380     0.0187 C.ar   1 <0>      -0.1100
    5 C5       -1.3203     3.3366     0.0207 C.ar   1 <0>      -0.1000
    6 C6       -2.5276     4.0081     0.0301 C.ar   1 <0>       0.0700
    7 O7       -2.5486     5.3680     0.0315 O.3    1 <0>      -0.4900
    8 C8       -3.7234     3.2939     0.0377 C.ar   1 <0>       0.0400
    9 O9       -4.9090     3.9570     0.0470 O.3    1 <0>      -0.4800
   10 C10      -3.7062     1.9011     0.0354 C.ar   1 <0>       0.0700
   11 O11      -4.8759     1.2073     0.0423 O.3    1 <0>      -0.4900
   12 C12      -2.5022     1.2237     0.0206 C.ar   1 <0>      -0.1000
   13 H13      -0.3934     3.8909     0.0151 H      1 <0>       0.1400
   14 H14      -2.5611     5.7621    -0.8514 H      1 <0>       0.3800
   15 H15      -5.2585     4.1502    -0.8337 H      1 <0>       0.3700
   16 H16      -5.2203     1.0080    -0.8390 H      1 <0>       0.3800
   17 H17      -2.4895     0.1438     0.0187 H      1 <0>       0.1400
@<TRIPOS>BOND
   1    1    2 ar
   2    2    3 ar
   3    2    4 1
   4    4   12 ar
   5    4    5 ar
   6    5    6 ar
   7    5   13 1
   8    6    7 1
   9    6    8 ar
  10    7   14 1
  11    8    9 1
  12    8   10 ar
  13    9   15 1
  14   10   11 1
  15   10   12 ar
  16   11   16 1
  17   12   17 1


@<TRIPOS>MOLECULE
CC1COCCN1C2=NC(=NC3=C2C=CC(=N3)C4=CC(=CC=C4)C(=O)NC)N5CCOCC5C
  64   68    0    0    0
SMALL
USER_CHARGES
NO_NAME
@<TRIPOS>ATOM
    1 C1       -1.1197     0.8297    -0.1969 C.3    1 <0>       0.0900
    2 N2       -0.8093    -0.6000    -0.1204 N.am   1 <0>      -0.7300
    3 C3       -0.0522    -1.1772    -1.0743 C.2    1 <0>       0.5600
    4 O4        0.3731    -0.5115    -1.9982 O.2    1 <0>      -0.5300
    5 C5        0.2612    -2.6201    -0.9971 C.ar   1 <0>      -0.1400
    6 C6       -0.2312    -3.3876     0.0604 C.ar   1 <0>      -0.0700
    7 C7        0.0615    -4.7350     0.1334 C.ar   1 <0>      -0.1300
    8 C8        0.8414    -5.3318    -0.8376 C.ar   1 <0>      -0.0600
    9 C9        1.3390    -4.5760    -1.8996 C.ar   1 <0>      -0.0700
   10 C10       2.1757    -5.2193    -2.9411 C.ar   1 <0>       0.2600
   11 C11       2.3654    -6.6060    -2.9058 C.ar   1 <0>      -0.2100
   12 C12       3.1347    -7.2109    -3.8612 C.ar   1 <0>       0.0100
   13 C13       3.7115    -6.4065    -4.8530 C.ar   1 <0>      -0.2700
   14 C14       3.4833    -5.0076    -4.8364 C.ar   1 <0>       0.3900
   15 N15       2.7212    -4.4705    -3.8852 N.ar   1 <0>      -0.4800
   16 N16       4.0445    -4.2563    -5.7952 N.ar   1 <0>      -0.5500
   17 C17       4.7916    -4.8115    -6.7309 C.ar   1 <0>       0.6000
   18 N18       5.3505    -3.9992    -7.6990 N.pl3  1 <0>      -0.5800
   19 C19       6.2576    -4.5499    -8.7184 C.3    1 <0>       0.0900
   20 C20       7.5263    -3.6900    -8.7518 C.3    1 <0>       0.0500
   21 O21       7.1601    -2.3164    -8.9031 O.3    1 <0>      -0.3800
   22 C22       6.3830    -1.7954    -7.8222 C.3    1 <0>       0.0500
   23 C23       5.0513    -2.5592    -7.7446 C.3    1 <0>       0.1200
   24 H24       4.4462    -2.3320    -8.6223 H      1 <0>       0.0800
   25 C25       4.2960    -2.1508    -6.4783 C.3    1 <0>      -0.1300
   26 N26       5.0301    -6.1188    -6.7820 N.ar   1 <0>      -0.5800
   27 C27       4.5216    -6.9475    -5.8809 C.ar   1 <0>       0.5400
   28 N28       4.7744    -8.3006    -5.9430 N.pl3  1 <0>      -0.6700
   29 C29       5.9284    -8.8885    -5.2443 C.3    1 <0>       0.1100
   30 C30       6.7041    -9.7589    -6.2396 C.3    1 <0>       0.0500
   31 O31       5.8036   -10.6779    -6.8627 O.3    1 <0>      -0.3800
   32 C32       4.7729   -10.0557    -7.6335 C.3    1 <0>       0.0500
   33 C33       3.8950    -9.2013    -6.7050 C.3    1 <0>       0.1400
   34 H34       3.3436    -9.8485    -6.0230 H      1 <0>       0.0800
   35 C35       2.9131    -8.3763    -7.5395 C.3    1 <0>      -0.1600
   36 C36       1.0440    -3.2188    -1.9827 C.ar   1 <0>      -0.0100
   37 H37      -0.1934     1.4040    -0.1812 H      1 <0>       0.0600
   38 H38      -1.6592     1.0354    -1.1214 H      1 <0>       0.0600
   39 H39      -1.7376     1.1135     0.6551 H      1 <0>       0.0800
   40 H40      -1.1486    -1.1312     0.6169 H      1 <0>       0.4000
   41 H41      -0.8416    -2.9265     0.8227 H      1 <0>       0.1300
   42 H42      -0.3209    -5.3247     0.9535 H      1 <0>       0.1400
   43 H43       1.0669    -6.3861    -0.7745 H      1 <0>       0.1400
   44 H44       1.9061    -7.1961    -2.1265 H      1 <0>       0.1400
   45 H45       3.2935    -8.2791    -3.8514 H      1 <0>       0.1400
   46 H46       6.5170    -5.5772    -8.4627 H      1 <0>       0.1100
   47 H47       5.7718    -4.5254    -9.6939 H      1 <0>       0.0800
   48 H48       8.0783    -3.8193    -7.8208 H      1 <0>       0.0500
   49 H49       8.1508    -3.9950    -9.5915 H      1 <0>       0.1100
   50 H50       6.9308    -1.9177    -6.8878 H      1 <0>       0.0600
   51 H51       6.1850    -0.7372    -7.9931 H      1 <0>       0.1100
   52 H52       4.1981    -1.0656    -6.4477 H      1 <0>       0.0500
   53 H53       3.3052    -2.6050    -6.4837 H      1 <0>       0.0900
   54 H54       4.8468    -2.4907    -5.6012 H      1 <0>       0.0800
   55 H55       6.5744    -8.0943    -4.8699 H      1 <0>       0.0800
   56 H56       5.5807    -9.5021    -4.4132 H      1 <0>       0.0700
   57 H57       7.1605    -9.1245    -6.9994 H      1 <0>       0.0600
   58 H58       7.4809   -10.3118    -5.7113 H      1 <0>       0.1000
   59 H59       5.2222    -9.4224    -8.3985 H      1 <0>       0.0600
   60 H60       4.1602   -10.8222    -8.1082 H      1 <0>       0.1000
   61 H61       2.3129    -9.0431    -8.1586 H      1 <0>       0.0800
   62 H62       2.2595    -7.8097    -6.8763 H      1 <0>       0.0600
   63 H63       3.4674    -7.6885    -8.1780 H      1 <0>       0.0700
   64 H64       1.4270    -2.6299    -2.8030 H      1 <0>       0.1500
@<TRIPOS>BOND
   1    1    2 1
   2    1   37 1
   3    1   38 1
   4    1   39 1
   5    2    3 am
   6    2   40 1
   7    3    4 2
   8    3    5 1
   9    5   36 ar
  10    5    6 ar
  11    6    7 ar
  12    6   41 1
  13    7    8 ar
  14    7   42 1
  15    8    9 ar
  16    8   43 1
  17    9   10 1
  18    9   36 ar
  19   10   15 ar
  20   10   11 ar
  21   11   12 ar
  22   11   44 1
  23   12   13 ar
  24   12   45 1
  25   13   27 ar
  26   13   14 ar
  27   14   15 ar
  28   14   16 ar
  29   16   17 ar
  30   17   18 1
  31   17   26 ar
  32   18   23 1
  33   18   19 1
  34   19   20 1
  35   19   46 1
  36   19   47 1
  37   20   21 1
  38   20   48 1
  39   20   49 1
  40   21   22 1
  41   22   23 1
  42   22   50 1
  43   22   51 1
  44   23   24 1
  45   23   25 1
  46   25   52 1
  47   25   53 1
  48   25   54 1
  49   26   27 ar
  50   27   28 1
  51   28   33 1
  52   28   29 1
  53   29   30 1
  54   29   55 1
  55   29   56 1
  56   30   31 1
  57   30   57 1
  58   30   58 1
  59   31   32 1
  60   32   33 1
  61   32   59 1
  62   32   60 1
  63   33   34 1
  64   33   35 1
  65   35   61 1
  66   35   62 1
  67   35   63 1
  68   36   64 1


@<TRIPOS>MOLECULE
CN(C)C1CCN(CC1)C(=O)C2=CC=C(C=C2)NC(=O)NC3=CC=C(C=C3)C4=NC(=NC(=N4)N5CCOCC5)N6CCOCC6
87    92    1     0     0
SMALL
USER_CHARGES
@<TRIPOS>ATOM
1      C1     -9.9371   -1.1856    4.9420 C.3      1 ZINC000049757175   -0.0500
2      N2     -9.3150   -2.4906    4.6810 N.4      1 ZINC000049757175   -0.3900
3      H3     -8.4251   -2.5396    5.1540 H        1 ZINC000049757175    0.4300
4      C4    -10.1926   -3.5593    5.1767 C.3      1 ZINC000049757175   -0.0500
5      C5     -9.1110   -2.6555    3.2356 C.3      1 ZINC000049757175    0.0200
6      C6     -8.1981   -1.5410    2.7191 C.3      1 ZINC000049757175   -0.1600
7      C7     -8.0155   -1.6960    1.2060 C.3      1 ZINC000049757175    0.1200
8      N8     -7.5289   -3.0535    0.9250 N.am     1 ZINC000049757175   -0.6200
9      C9     -6.4113   -3.2453    0.1965 C.2      1 ZINC000049757175    0.5700
10     O10    -5.8384   -2.2945   -0.2997 O.2      1 ZINC000049757175   -0.5100
11     C11    -5.8828   -4.6093    0.0010 C.ar     1 ZINC000049757175   -0.1600
12     C12    -6.7459   -5.6512   -0.3495 C.ar     1 ZINC000049757175   -0.0800
13     C13    -6.2496   -6.9222   -0.5315 C.ar     1 ZINC000049757175   -0.1200
14     C14    -4.8905   -7.1703   -0.3670 C.ar     1 ZINC000049757175    0.1900
15     N15    -4.3911   -8.4587   -0.5526 N.am     1 ZINC000049757175   -0.6800
16     C16    -4.9221   -9.2573   -1.4995 C.2      1 ZINC000049757175    0.7100
17     O17    -5.8888   -8.8855   -2.1362 O.2      1 ZINC000049757175   -0.5500
18     N18    -4.3814  -10.4681   -1.7407 N.am     1 ZINC000049757175   -0.6800
19     C19    -4.8614  -11.2499   -2.7933 C.ar     1 ZINC000049757175    0.1900
20     C20    -5.3017  -10.6426   -3.9641 C.ar     1 ZINC000049757175   -0.1300
21     C21    -5.7758  -11.4118   -5.0043 C.ar     1 ZINC000049757175   -0.0400
22     C22    -5.8133  -12.8011   -4.8822 C.ar     1 ZINC000049757175   -0.0700
23     C23    -6.3221  -13.6305   -5.9991 C.ar     1 ZINC000049757175    0.4600
24     N24    -6.7387  -13.0513   -7.1221 N.ar     1 ZINC000049757175   -0.6000
25     C25    -7.1952  -13.7963   -8.1240 C.ar     1 ZINC000049757175    0.5600
26     N26    -7.6270  -13.1956   -9.2893 N.3      1 ZINC000049757175   -0.4500
27     C27    -6.8991  -13.7205  -10.4537 C.3      1 ZINC000049757175    0.0300
28     C28    -7.4492  -13.0728  -11.7271 C.3      1 ZINC000049757175    0.0600
29     O29    -7.3419  -11.6509  -11.6174 O.3      1 ZINC000049757175   -0.3800
30     C30    -8.0397  -11.1058  -10.4944 C.3      1 ZINC000049757175    0.0600
31     C31    -7.4956  -11.7336   -9.2084 C.3      1 ZINC000049757175    0.0300
32     N32    -7.2354  -15.1194   -8.0041 N.ar     1 ZINC000049757175   -0.5800
33     C33    -6.8193  -15.6987   -6.8825 C.ar     1 ZINC000049757175    0.5600
34     N34    -6.8615  -17.0728   -6.7588 N.3      1 ZINC000049757175   -0.4500
35     C35    -8.2226  -17.5805   -6.9843 C.3      1 ZINC000049757175    0.0300
36     C36    -8.2123  -19.1090   -6.8971 C.3      1 ZINC000049757175    0.0600
37     O37    -7.6902  -19.5054   -5.6261 O.3      1 ZINC000049757175   -0.3800
38     C38    -6.3657  -19.0286   -5.3736 C.3      1 ZINC000049757175    0.0600
39     C39    -6.3573  -17.4993   -5.4454 C.3      1 ZINC000049757175    0.0300
40     N40    -6.3575  -14.9554   -5.8818 N.ar     1 ZINC000049757175   -0.6000
41     C41    -5.3705  -13.4080   -3.7065 C.ar     1 ZINC000049757175   -0.0400
42     C42    -4.8928  -12.6346   -2.6712 C.ar     1 ZINC000049757175   -0.1500
43     C43    -4.0285   -6.1353   -0.0181 C.ar     1 ZINC000049757175   -0.1500
44     C44    -4.5174   -4.8609    0.1603 C.ar     1 ZINC000049757175   -0.0400
45     C45    -8.2834   -4.1981    1.4537 C.3      1 ZINC000049757175    0.1000
46     C46    -8.4629   -4.0150    2.9640 C.3      1 ZINC000049757175   -0.1600
47     H47   -10.0885   -1.0633    6.0144 H        1 ZINC000049757175    0.1300
48     H48    -9.2859   -0.3927    4.5741 H        1 ZINC000049757175    0.1300
49     H49   -10.8984   -1.1327    4.4309 H        1 ZINC000049757175    0.1200
50     H50   -11.1539   -3.5063    4.6657 H        1 ZINC000049757175    0.1200
51     H51    -9.7310   -4.5276    4.9830 H        1 ZINC000049757175    0.1300
52     H52   -10.3440   -3.4369    6.2492 H        1 ZINC000049757175    0.1300
53     H53   -10.0724   -2.6030    2.7248 H        1 ZINC000049757175    0.1400
54     H54    -8.6493   -0.5723    2.9338 H        1 ZINC000049757175    0.1000
55     H55    -7.2279   -1.6081    3.2114 H        1 ZINC000049757175    0.0900
56     H56    -8.9707   -1.5392    0.7048 H        1 ZINC000049757175    0.0800
57     H57    -7.2890   -0.9661    0.8490 H        1 ZINC000049757175    0.1100
58     H58    -7.8011   -5.4594   -0.4770 H        1 ZINC000049757175    0.1300
59     H59    -6.9161   -7.7279   -0.8020 H        1 ZINC000049757175    0.1500
60     H60    -3.6615   -8.7803   -0.0001 H        1 ZINC000049757175    0.4100
61     H61    -3.6589  -10.7964   -1.1830 H        1 ZINC000049757175    0.4100
62     H62    -5.2725   -9.5671   -4.0581 H        1 ZINC000049757175    0.1400
63     H63    -6.1184  -10.9397   -5.9132 H        1 ZINC000049757175    0.1400
64     H64    -5.8388  -13.4873  -10.3555 H        1 ZINC000049757175    0.0600
65     H65    -7.0311  -14.8011  -10.5087 H        1 ZINC000049757175    0.1100
66     H66    -6.8746  -13.4159  -12.5875 H        1 ZINC000049757175    0.1100
67     H67    -8.4957  -13.3501  -11.8536 H        1 ZINC000049757175    0.0700
68     H68    -7.8922  -10.0263  -10.4631 H        1 ZINC000049757175    0.1100
69     H69    -9.1034  -11.3259  -10.5850 H        1 ZINC000049757175    0.0600
70     H70    -8.0630  -11.3638   -8.3544 H        1 ZINC000049757175    0.1000
71     H71    -6.4449  -11.4686   -9.0904 H        1 ZINC000049757175    0.0700
72     H72    -8.8921  -17.1771   -6.2246 H        1 ZINC000049757175    0.0600
73     H73    -8.5661  -17.2747   -7.9725 H        1 ZINC000049757175    0.1100
74     H74    -9.2288  -19.4867   -7.0069 H        1 ZINC000049757175    0.1100
75     H75    -7.5849  -19.5146   -7.6908 H        1 ZINC000049757175    0.0700
76     H76    -6.0468  -19.3481   -4.3815 H        1 ZINC000049757175    0.1100
77     H77    -5.6847  -19.4319   -6.1230 H        1 ZINC000049757175    0.0600
78     H78    -5.3392  -17.1342   -5.3102 H        1 ZINC000049757175    0.1000
79     H79    -6.9970  -17.0946   -4.6611 H        1 ZINC000049757175    0.0700
80     H80    -5.3985  -14.4833   -3.6096 H        1 ZINC000049757175    0.1400
81     H81    -4.5499  -13.1039   -1.7609 H        1 ZINC000049757175    0.1400
82     H82    -2.9741   -6.3313    0.1092 H        1 ZINC000049757175    0.1400
83     H83    -3.8477   -4.0579    0.4307 H        1 ZINC000049757175    0.1400
84     H84    -9.2603   -4.2453    0.9726 H        1 ZINC000049757175    0.0800
85     H85    -7.7335   -5.1191    1.2600 H        1 ZINC000049757175    0.1200
86     H86    -7.4902   -4.0588    3.4539 H        1 ZINC000049757175    0.0900
87     H87    -9.1027   -4.8072    3.3530 H        1 ZINC000049757175    0.1000
@<TRIPOS>BOND
1     1     2     1
2     1     47    1
3     1     48    1
4     1     49    1
5     2     3     1
6     2     4     1
7     2     5     1
8     4     50    1
9     4     51    1
10    4     52    1
11    5     46    1
12    5     6     1
13    5     53    1
14    6     7     1
15    6     54    1
16    6     55    1
17    7     8     1
18    7     56    1
19    7     57    1
20    8     9     am
21    8     45    1
22    9     10    2
23    9     11    1
24    11    44    ar
25    11    12    ar
26    12    13    ar
27    12    58    1
28    13    14    ar
29    13    59    1
30    14    15    1
31    14    43    ar
32    15    16    am
33    15    60    1
34    16    17    2
35    16    18    am
36    18    19    1
37    18    61    1
38    19    42    ar
39    19    20    ar
40    20    21    ar
41    20    62    1
42    21    22    ar
43    21    63    1
44    22    23    1
45    22    41    ar
46    23    40    ar
47    23    24    ar
48    24    25    ar
49    25    26    1
50    25    32    ar
51    26    31    1
52    26    27    1
53    27    28    1
54    27    64    1
55    27    65    1
56    28    29    1
57    28    66    1
58    28    67    1
59    29    30    1
60    30    31    1
61    30    68    1
62    30    69    1
63    31    70    1
64    31    71    1
65    32    33    ar
66    33    34    1
67    33    40    ar
68    34    39    1
69    34    35    1
70    35    36    1
71    35    72    1
72    35    73    1
73    36    37    1
74    36    74    1
75    36    75    1
76    37    38    1
77    38    39    1
78    38    76    1
79    38    77    1
80    39    78    1
81    39    79    1
82    41    42    ar
83    41    80    1
84    42    81    1
85    43    44    ar
86    43    82    1
87    44    83    1
88    45    46    1
89    45    84    1
90    45    85    1
91    46    86    1
92    46    87    1
@<TRIPOS>SUBSTRUCTURE
1   ZINC000049757175 1     RESIDUE    1   A     ZIN   1


@<TRIPOS>MOLECULE
COC1=C(C=C(C=N1)C2=CC3=C(C=CN=C3C=C2)C4=CN=NC=C4)NS(=O)(=O)C5=C(C=C(C=C5)F)F
52    56    1     0     0
SMALL
USER_CHARGES
@<TRIPOS>ATOM
1      C1     -0.0173    1.4248    0.0099 C.3      1 ZINC000043208634    0.0600
2      O2      0.0021   -0.0041    0.0020 O.3      1 ZINC000043208634   -0.3200
3      C3      0.6051   -0.6064   -1.0545 C.ar     1 ZINC000043208634    0.2000
4      N4      1.1423    0.1337   -2.0083 N.ar     1 ZINC000043208634   -0.5000
5      C5      1.7389   -0.4043   -3.0542 C.ar     1 ZINC000043208634    0.0400
6      C6      1.8248   -1.7865   -3.1928 C.ar     1 ZINC000043208634   -0.1100
7      C7      2.4976   -2.3832   -4.3722 C.ar     1 ZINC000043208634    0.0200
8      C8      2.5713   -3.7790   -4.5012 C.ar     1 ZINC000043208634   -0.0900
9      C9      3.1820   -4.3496   -5.5719 C.ar     1 ZINC000043208634   -0.0900
10     C10     3.7519   -3.5407   -6.5724 C.ar     1 ZINC000043208634    0.1200
11     N11     4.3558   -4.0874   -7.6323 N.ar     1 ZINC000043208634   -0.4600
12     C12     4.8934   -3.3538   -8.5767 C.ar     1 ZINC000043208634    0.1200
13     C13     4.8675   -1.9643   -8.5325 C.ar     1 ZINC000043208634   -0.1500
14     C14     4.2579   -1.3236   -7.4626 C.ar     1 ZINC000043208634    0.0000
15     C15     4.2109    0.1549   -7.3823 C.ar     1 ZINC000043208634   -0.0400
16     C16     5.3656    0.9275   -7.5628 C.ar     1 ZINC000043208634   -0.1000
17     C17     5.2428    2.3030   -7.4736 C.ar     1 ZINC000043208634    0.0400
18     N18     4.0654    2.8453   -7.2257 N.ar     1 ZINC000043208634   -0.2400
19     N19     3.0043    2.1439   -7.0594 N.ar     1 ZINC000043208634   -0.2300
20     C20     3.0113    0.8277   -7.1294 C.ar     1 ZINC000043208634    0.0600
21     C21     3.6808   -2.1310   -6.4489 C.ar     1 ZINC000043208634   -0.0700
22     C22     3.0439   -1.5604   -5.3419 C.ar     1 ZINC000043208634   -0.1200
23     C23     1.2683   -2.6056   -2.2041 C.ar     1 ZINC000043208634   -0.1200
24     C24     0.6551   -2.0007   -1.1172 C.ar     1 ZINC000043208634    0.2400
25     N25     0.0841   -2.7772   -0.1021 N.pl3    1 ZINC000043208634   -1.0900
26     S26    -0.6453   -2.0433    1.1908 S.o2     1 ZINC000043208634    2.6300
27     O27     0.3847   -1.3761    1.9071 O.2      1 ZINC000043208634   -1.0100
28     O28    -1.7929   -1.3788    0.6802 O.2      1 ZINC000043208634   -1.0000
29     C29    -1.2397   -3.3209    2.2487 C.ar     1 ZINC000043208634   -0.6800
30     C30    -0.7120   -3.4686    3.5173 C.ar     1 ZINC000043208634    0.0200
31     C31    -1.1777   -4.4701    4.3484 C.ar     1 ZINC000043208634   -0.1900
32     C32    -2.1735   -5.3266    3.9106 C.ar     1 ZINC000043208634    0.1600
33     F33    -2.6288   -6.3050    4.7233 F        1 ZINC000043208634   -0.1300
34     C34    -2.7029   -5.1796    2.6399 C.ar     1 ZINC000043208634   -0.2200
35     C35    -2.2396   -4.1731    1.8106 C.ar     1 ZINC000043208634    0.2300
36     F36    -2.7553   -4.0285    0.5703 F        1 ZINC000043208634   -0.1100
37     H37     1.0053    1.8021    0.0021 H        1 ZINC000043208634    0.0500
38     H38    -0.5445    1.7859   -0.8732 H        1 ZINC000043208634    0.0500
39     H39    -0.5275    1.7763    0.9067 H        1 ZINC000043208634    0.0800
40     H40     2.1657    0.2354   -3.8124 H        1 ZINC000043208634    0.1400
41     H41     2.1368   -4.4079   -3.7383 H        1 ZINC000043208634    0.1400
42     H42     3.2305   -5.4252   -5.6552 H        1 ZINC000043208634    0.1400
43     H43     5.3704   -3.8429   -9.4131 H        1 ZINC000043208634    0.1600
44     H44     5.3194   -1.3869   -9.3255 H        1 ZINC000043208634    0.1400
45     H45     6.3204    0.4648   -7.7646 H        1 ZINC000043208634    0.1500
46     H46     6.1103    2.9326   -7.6065 H        1 ZINC000043208634    0.1800
47     H47     2.0971    0.2715   -6.9837 H        1 ZINC000043208634    0.1800
48     H48     2.9824   -0.4867   -5.2427 H        1 ZINC000043208634    0.1300
49     H49     1.3188   -3.6815   -2.2833 H        1 ZINC000043208634    0.1300
50     H50     0.0651   -2.8012    3.8595 H        1 ZINC000043208634    0.1600
51     H51    -0.7643   -4.5848    5.3396 H        1 ZINC000043208634    0.1500
52     H52    -3.4798   -5.8472    2.2976 H        1 ZINC000043208634    0.1500
@<TRIPOS>BOND
1     1     2     1
2     1     37    1
3     1     38    1
4     1     39    1
5     2     3     1
6     3     24    ar
7     3     4     ar
8     4     5     ar
9     5     6     ar
10    5     40    1
11    6     7     1
12    6     23    ar
13    7     22    ar
14    7     8     ar
15    8     9     ar
16    8     41    1
17    9     10    ar
18    9     42    1
19    10    21    ar
20    10    11    ar
21    11    12    ar
22    12    13    ar
23    12    43    1
24    13    14    ar
25    13    44    1
26    14    15    1
27    14    21    ar
28    15    20    ar
29    15    16    ar
30    16    17    ar
31    16    45    1
32    17    18    ar
33    17    46    1
34    18    19    ar
35    19    20    ar
36    20    47    1
37    21    22    ar
38    22    48    1
39    23    24    ar
40    23    49    1
41    24    25    1
42    25    26    1
43    26    27    2
44    26    28    2
45    26    29    1
46    29    35    ar
47    29    30    ar
48    30    31    ar
49    30    50    1
50    31    32    ar
51    31    51    1
52    32    33    1
53    32    34    ar
54    34    35    ar
55    34    52    1
56    35    36    1
@<TRIPOS>SUBSTRUCTURE
1   ZINC000043208634 1     RESIDUE    1   A     ZIN   1


@<TRIPOS>MOLECULE
C1CC(C1)(C2=CC=C(C=C2)C3=C(C=C4C(=N3)C=CN5C4=NNC5=O)C6=CC=CC=C6)N
53    58    1     0     0
SMALL
USER_CHARGES
@<TRIPOS>ATOM
1      N1     -0.0116    1.0048    0.0076 N.4      1 ZINC000036382821   -0.6200
2      H2      0.0021   -0.0041    0.0020 H        1 ZINC000036382821    0.4400
3      H3      0.9350    1.3541    0.0004 H        1 ZINC000036382821    0.4400
4      H4     -0.4996    1.3391   -0.8099 H        1 ZINC000036382821    0.4400
5      C5     -0.6992    1.4786    1.2162 C.3      1 ZINC000036382821    0.0600
6      C6     -1.0020    2.9543    1.1767 C.ar     1 ZINC000036382821   -0.1000
7      C7     -1.2428    3.6399    2.3540 C.ar     1 ZINC000036382821   -0.1000
8      C8     -1.5206    4.9911    2.3243 C.ar     1 ZINC000036382821   -0.0600
9      C9     -1.5585    5.6657    1.1042 C.ar     1 ZINC000036382821   -0.0300
10     C10    -1.8557    7.1164    1.0654 C.ar     1 ZINC000036382821    0.2000
11     N11    -2.7081    7.6293    1.9395 N.ar     1 ZINC000036382821   -0.4500
12     C12    -3.0038    8.9229    1.9420 C.ar     1 ZINC000036382821    0.2100
13     C13    -2.4097    9.7950    1.0017 C.ar     1 ZINC000036382821   -0.0800
14     C14    -1.5088    9.2908    0.0678 C.ar     1 ZINC000036382821    0.0000
15     C15    -1.2227    7.9262    0.1042 C.ar     1 ZINC000036382821   -0.0900
16     C16    -0.2710    7.3339   -0.8651 C.ar     1 ZINC000036382821   -0.0500
17     C17     0.7640    6.5137   -0.4177 C.ar     1 ZINC000036382821   -0.1000
18     C18     1.6472    5.9651   -1.3250 C.ar     1 ZINC000036382821   -0.1200
19     C19     1.5075    6.2278   -2.6760 C.ar     1 ZINC000036382821   -0.1100
20     C20     0.4826    7.0408   -3.1258 C.ar     1 ZINC000036382821   -0.1100
21     C21    -0.4104    7.5901   -2.2286 C.ar     1 ZINC000036382821   -0.1000
22     C22    -2.7669   11.2224    1.0404 C.2      1 ZINC000036382821    0.3100
23     N23    -2.3883   12.2418    0.3160 N.2      1 ZINC000036382821   -0.2500
24     N24    -3.0498   13.3810    0.7937 N.am     1 ZINC000036382821   -0.5300
25     C25    -3.8299   12.9962    1.8232 C.2      1 ZINC000036382821    0.6600
26     O26    -4.5520   13.7204    2.4854 O.2      1 ZINC000036382821   -0.5200
27     N27    -3.6689   11.6656    1.9912 N.am     1 ZINC000036382821   -0.4900
28     C28    -4.2321   10.7931    2.8964 C.2      1 ZINC000036382821    0.1500
29     C29    -3.9496    9.4869    2.9122 C.2      1 ZINC000036382821   -0.1600
30     C30    -1.3149    4.9691   -0.0792 C.ar     1 ZINC000036382821   -0.0700
31     C31    -1.0326    3.6191   -0.0362 C.ar     1 ZINC000036382821   -0.1300
32     C32    -1.9032    0.6113    1.6199 C.3      1 ZINC000036382821   -0.1300
33     C33    -0.9184   -0.2324    2.4464 C.3      1 ZINC000036382821   -0.1600
34     C34    -0.0315    1.0215    2.5239 C.3      1 ZINC000036382821   -0.1300
35     H35    -1.2135    3.1163    3.2981 H        1 ZINC000036382821    0.1400
36     H36    -1.7087    5.5252    3.2439 H        1 ZINC000036382821    0.1500
37     H37    -1.0423    9.9376   -0.6604 H        1 ZINC000036382821    0.1600
38     H38     0.8745    6.3084    0.6369 H        1 ZINC000036382821    0.1200
39     H39     2.4493    5.3296   -0.9796 H        1 ZINC000036382821    0.1200
40     H40     2.2016    5.7968   -3.3823 H        1 ZINC000036382821    0.1300
41     H41     0.3785    7.2424   -4.1817 H        1 ZINC000036382821    0.1300
42     H42    -1.2102    8.2247   -2.5809 H        1 ZINC000036382821    0.1300
43     H43    -2.9623   14.2825    0.4465 H        1 ZINC000036382821    0.4700
44     H44    -4.9318   11.1804    3.6223 H        1 ZINC000036382821    0.1800
45     H45    -4.4181    8.8441    3.6428 H        1 ZINC000036382821    0.1700
46     H46    -1.3432    5.4860   -1.0270 H        1 ZINC000036382821    0.1400
47     H47    -0.8435    3.0786   -0.9519 H        1 ZINC000036382821    0.1200
48     H48    -2.6393    1.1406    2.2249 H        1 ZINC000036382821    0.1300
49     H49    -2.3499    0.0692    0.7864 H        1 ZINC000036382821    0.0900
50     H50    -1.3157   -0.5466    3.4115 H        1 ZINC000036382821    0.1000
51     H51    -0.4681   -1.0517    1.8859 H        1 ZINC000036382821    0.0900
52     H52     1.0328    0.8106    2.4202 H        1 ZINC000036382821    0.1000
53     H53    -0.2559    1.6630    3.3761 H        1 ZINC000036382821    0.1300
@<TRIPOS>BOND
1     1     2     1
2     1     3     1
3     1     4     1
4     1     5     1
5     5     34    1
6     5     6     1
7     5     32    1
8     6     31    ar
9     6     7     ar
10    7     8     ar
11    7     35    1
12    8     9     ar
13    8     36    1
14    9     10    1
15    9     30    ar
16    10    15    ar
17    10    11    ar
18    11    12    ar
19    12    29    1
20    12    13    ar
21    13    14    ar
22    13    22    1
23    14    15    ar
24    14    37    1
25    15    16    1
26    16    21    ar
27    16    17    ar
28    17    18    ar
29    17    38    1
30    18    19    ar
31    18    39    1
32    19    20    ar
33    19    40    1
34    20    21    ar
35    20    41    1
36    21    42    1
37    22    27    1
38    22    23    2
39    23    24    1
40    24    25    am
41    24    43    1
42    25    26    2
43    25    27    am
44    27    28    1
45    28    29    2
46    28    44    1
47    29    45    1
48    30    31    ar
49    30    46    1
50    31    47    1
51    32    33    1
52    32    48    1
53    32    49    1
54    33    34    1
55    33    50    1
56    33    51    1
57    34    52    1
58    34    53    1
@<TRIPOS>SUBSTRUCTURE
1   ZINC000036382821 1     RESIDUE    1   A     ZIN   1


@<TRIPOS>MOLECULE
COC1=CC=CC(=C1N)C2=CC(=O)C3=CC=CC=C3O2
33    35    1     0     0
SMALL
USER_CHARGES
@<TRIPOS>ATOM
1      C1     -0.2646    1.4578    0.2293 C.3      1 ZINC000001420826    0.0300
2      O2     -0.2497    0.0293    0.1969 O.3      1 ZINC000001420826   -0.3200
3      C3      0.4990   -0.6020    1.1409 C.ar     1 ZINC000001420826    0.0500
4      C4      1.1973    0.1378    2.0789 C.ar     1 ZINC000001420826   -0.1400
5      C5      1.9626   -0.4976    3.0442 C.ar     1 ZINC000001420826   -0.1400
6      C6      2.0367   -1.8723    3.0809 C.ar     1 ZINC000001420826   -0.0600
7      C7      1.3372   -2.6359    2.1405 C.ar     1 ZINC000001420826   -0.1300
8      C8      1.4137   -4.1069    2.1761 C.2      1 ZINC000001420826    0.2200
9      C9      1.0596   -4.7538    3.3217 C.2      1 ZINC000001420826   -0.3100
10     C10     1.1262   -6.1637    3.3739 C.2      1 ZINC000001420826    0.4200
11     O11     0.8166   -6.7762    4.3827 O.2      1 ZINC000001420826   -0.4700
12     C12     1.5849   -6.8673    2.1591 C.ar     1 ZINC000001420826   -0.2200
13     C13     1.6811   -8.2567    2.1198 C.ar     1 ZINC000001420826   -0.0300
14     C14     2.1132   -8.8762    0.9668 C.ar     1 ZINC000001420826   -0.1500
15     C15     2.4503   -8.1229   -0.1476 C.ar     1 ZINC000001420826   -0.0600
16     C16     2.3591   -6.7470   -0.1206 C.ar     1 ZINC000001420826   -0.1400
17     C17     1.9258   -6.1035    1.0317 C.ar     1 ZINC000001420826    0.1400
18     O18     1.8243   -4.7586    1.0769 O.3      1 ZINC000001420826   -0.2200
19     C19     0.5583   -1.9938    1.1672 C.ar     1 ZINC000001420826    0.2400
20     N20    -0.1429   -2.7425    0.2252 N.pl3    1 ZINC000001420826   -0.8600
21     H21     0.7497    1.8348    0.0989 H        1 ZINC000001420826    0.0600
22     H22    -0.8978    1.8329   -0.5748 H        1 ZINC000001420826    0.1000
23     H23    -0.6572    1.7954    1.1885 H        1 ZINC000001420826    0.0600
24     H24     1.1461    1.2164    2.0585 H        1 ZINC000001420826    0.1300
25     H25     2.5042    0.0888    3.7717 H        1 ZINC000001420826    0.1300
26     H26     2.6351   -2.3609    3.8356 H        1 ZINC000001420826    0.1300
27     H27     0.7307   -4.1925    4.1838 H        1 ZINC000001420826    0.1600
28     H28     1.4192   -8.8444    2.9872 H        1 ZINC000001420826    0.1400
29     H29     2.1899   -9.9529    0.9313 H        1 ZINC000001420826    0.1400
30     H30     2.7880   -8.6186   -1.0456 H        1 ZINC000001420826    0.1400
31     H31     2.6239   -6.1704   -0.9946 H        1 ZINC000001420826    0.1400
32     H32    -0.1669   -3.7097    0.2949 H        1 ZINC000001420826    0.4000
33     H33    -0.6072   -2.2969   -0.5005 H        1 ZINC000001420826    0.4100
@<TRIPOS>BOND
1     1     2     1
2     1     21    1
3     1     22    1
4     1     23    1
5     2     3     1
6     3     19    ar
7     3     4     ar
8     4     5     ar
9     4     24    1
10    5     6     ar
11    5     25    1
12    6     7     ar
13    6     26    1
14    7     8     1
15    7     19    ar
16    8     18    1
17    8     9     2
18    9     10    1
19    9     27    1
20    10    11    2
21    10    12    1
22    12    17    ar
23    12    13    ar
24    13    14    ar
25    13    28    1
26    14    15    ar
27    14    29    1
28    15    16    ar
29    15    30    1
30    16    17    ar
31    16    31    1
32    17    18    1
33    19    20    1
34    20    32    1
35    20    33    1
@<TRIPOS>SUBSTRUCTURE
1   ZINC000001420826 1     RESIDUE    1   A     ZIN   1


@<TRIPOS>MOLECULE
C1COCCN1C2=CC(=O)C3=C(O2)C(=CC=C3)C4=CC=CC=C4
40    43    1     0     0
SMALL
USER_CHARGES
@<TRIPOS>ATOM
1      O1      0.0062    0.0118   -0.2718 O.2      1 ZINC000000006014   -0.4900
2      C2     -0.0122    1.2249   -0.1380 C.2      1 ZINC000000006014    0.4300
3      C3     -1.2251    1.9400   -0.1142 C.2      1 ZINC000000006014   -0.4000
4      C4     -1.2042    3.2940    0.0375 C.2      1 ZINC000000006014    0.4300
5      N5     -2.3949    3.9735    0.0588 N.pl3    1 ZINC000000006014   -0.6100
6      C6     -3.6101    3.3551    0.6120 C.3      1 ZINC000000006014    0.0900
7      C7     -4.2346    4.3303    1.6164 C.3      1 ZINC000000006014    0.0400
8      O8     -4.3988    5.6065    0.9936 O.3      1 ZINC000000006014   -0.3800
9      C9     -3.1739    6.2213    0.5868 C.3      1 ZINC000000006014    0.0500
10     C10    -2.4938    5.3450   -0.4652 C.3      1 ZINC000000006014    0.0800
11     O11    -0.0646    3.9867    0.1670 O.3      1 ZINC000000006014   -0.2400
12     C12     1.1457    3.3910    0.1564 C.ar     1 ZINC000000006014    0.1600
13     C13     2.3178    4.1433    0.2945 C.ar     1 ZINC000000006014   -0.0700
14     C14     2.2436    5.6158    0.4556 C.ar     1 ZINC000000006014   -0.0500
15     C15     1.4733    6.3775   -0.4213 C.ar     1 ZINC000000006014   -0.1000
16     C16     1.4075    7.7473   -0.2664 C.ar     1 ZINC000000006014   -0.1200
17     C17     2.1044    8.3644    0.7568 C.ar     1 ZINC000000006014   -0.1100
18     C18     2.8706    7.6135    1.6301 C.ar     1 ZINC000000006014   -0.1200
19     C19     2.9394    6.2425    1.4879 C.ar     1 ZINC000000006014   -0.1000
20     C20     3.5524    3.5031    0.2805 C.ar     1 ZINC000000006014   -0.0500
21     C21     3.6301    2.1295    0.1311 C.ar     1 ZINC000000006014   -0.1400
22     C22     2.4829    1.3758   -0.0065 C.ar     1 ZINC000000006014   -0.0300
23     C23     1.2370    2.0001    0.0115 C.ar     1 ZINC000000006014   -0.2100
24     H24    -2.1655    1.4189   -0.2158 H        1 ZINC000000006014    0.1500
25     H25    -4.3178    3.1530   -0.1921 H        1 ZINC000000006014    0.0900
26     H26    -3.3513    2.4241    1.1164 H        1 ZINC000000006014    0.1000
27     H27    -5.2063    3.9527    1.9346 H        1 ZINC000000006014    0.1100
28     H28    -3.5803    4.4294    2.4826 H        1 ZINC000000006014    0.0600
29     H29    -3.3825    7.2041    0.1642 H        1 ZINC000000006014    0.1100
30     H30    -2.5158    6.3272    1.4492 H        1 ZINC000000006014    0.0600
31     H31    -1.4969    5.7317   -0.6764 H        1 ZINC000000006014    0.1000
32     H32    -3.0877    5.3409   -1.3792 H        1 ZINC000000006014    0.0900
33     H33     0.9290    5.8967   -1.2207 H        1 ZINC000000006014    0.1200
34     H34     0.8112    8.3385   -0.9455 H        1 ZINC000000006014    0.1300
35     H35     2.0504    9.4367    0.8741 H        1 ZINC000000006014    0.1200
36     H36     3.4126    8.1006    2.4271 H        1 ZINC000000006014    0.1300
37     H37     3.5379    5.6572    2.1703 H        1 ZINC000000006014    0.1300
38     H38     4.4576    4.0826    0.3866 H        1 ZINC000000006014    0.1400
39     H39     4.5951    1.6445    0.1218 H        1 ZINC000000006014    0.1400
40     H40     2.5499    0.3042   -0.1230 H        1 ZINC000000006014    0.1400
@<TRIPOS>BOND
1     1     2     2
2     2     23    1
3     2     3     1
4     3     4     2
5     3     24    1
6     4     5     1
7     4     11    1
8     5     10    1
9     5     6     1
10    6     7     1
11    6     25    1
12    6     26    1
13    7     8     1
14    7     27    1
15    7     28    1
16    8     9     1
17    9     10    1
18    9     29    1
19    9     30    1
20    10    31    1
21    10    32    1
22    11    12    1
23    12    23    ar
24    12    13    ar
25    13    14    1
26    13    20    ar
27    14    19    ar
28    14    15    ar
29    15    16    ar
30    15    33    1
31    16    17    ar
32    16    34    1
33    17    18    ar
34    17    35    1
35    18    19    ar
36    18    36    1
37    19    37    1
38    20    21    ar
39    20    38    1
40    21    22    ar
41    21    39    1
42    22    23    ar
43    22    40    1
@<TRIPOS>SUBSTRUCTURE
1   ZINC000000006014 1     RESIDUE    1   A     ZIN   1


@<TRIPOS>MOLECULE
CC(C)N1C2=NC=NC(=C2C(=N1)C3=CC4=C(N3)C=CC(=C4)O)N
39    42    1     0     0
SMALL
USER_CHARGES
@<TRIPOS>ATOM
1      C1      0.3153    1.0283   -0.5117 C.3      1 ZINC000036056301   -0.1600
2      C2      0.1232   -0.4547   -0.1881 C.3      1 ZINC000036056301    0.1600
3      C3      0.7442   -1.3037   -1.2992 C.3      1 ZINC000036056301   -0.1600
4      N4      0.7760   -0.7650    1.0862 N.pl3    1 ZINC000036056301   -0.3700
5      N5      2.1384   -0.5994    1.3572 N.2      1 ZINC000036056301   -0.2100
6      C6      2.3960   -0.9698    2.5912 C.2      1 ZINC000036056301    0.1800
7      C7      3.7153   -0.9451    3.2552 C.2      1 ZINC000036056301    0.1300
8      C8      4.6316    0.0492    3.1388 C.2      1 ZINC000036056301   -0.1300
9      C9      5.7818   -0.3327    3.9561 C.ar     1 ZINC000036056301   -0.0900
10     C10     7.0128    0.2693    4.2335 C.ar     1 ZINC000036056301   -0.0900
11     C11     7.9094   -0.3653    5.0697 C.ar     1 ZINC000036056301    0.0800
12     O12     9.1082    0.2155    5.3430 O.3      1 ZINC000036056301   -0.5000
13     C13     7.5911   -1.5974    5.6347 C.ar     1 ZINC000036056301   -0.1100
14     C14     6.3812   -2.2003    5.3687 C.ar     1 ZINC000036056301   -0.1100
15     C15     5.4638   -1.5788    4.5290 C.ar     1 ZINC000036056301    0.1000
16     N16     4.2015   -1.9238    4.0912 N.pl3    1 ZINC000036056301   -0.5900
17     C17     1.1334   -1.4108    3.1865 C.ar     1 ZINC000036056301   -0.3300
18     C18     0.7483   -1.9098    4.4410 C.ar     1 ZINC000036056301    0.5200
19     N19     1.6756   -2.0772    5.4515 N.pl3    1 ZINC000036056301   -0.8300
20     N20    -0.5312   -2.2168    4.6326 N.ar     1 ZINC000036056301   -0.6000
21     C21    -1.4221   -2.0584    3.6702 C.ar     1 ZINC000036056301    0.3900
22     N22    -1.1075   -1.5948    2.4805 N.ar     1 ZINC000036056301   -0.5700
23     C23     0.1487   -1.2543    2.1935 C.ar     1 ZINC000036056301    0.3800
24     H24     1.3801    1.2491   -0.5857 H        1 ZINC000036056301    0.0700
25     H25    -0.1704    1.2592   -1.4598 H        1 ZINC000036056301    0.0800
26     H26    -0.1271    1.6332    0.2799 H        1 ZINC000036056301    0.0600
27     H27    -0.9416   -0.6755   -0.1141 H        1 ZINC000036056301    0.1100
28     H28     1.8090   -1.0829   -1.3732 H        1 ZINC000036056301    0.0700
29     H29     0.6074   -2.3602   -1.0686 H        1 ZINC000036056301    0.0600
30     H30     0.2585   -1.0729   -2.2473 H        1 ZINC000036056301    0.0800
31     H31     4.5304    0.9511    2.5533 H        1 ZINC000036056301    0.1600
32     H32     7.2610    1.2250    3.7959 H        1 ZINC000036056301    0.1300
33     H33     9.0973    0.7945    6.1174 H        1 ZINC000036056301    0.3900
34     H34     8.2996   -2.0854    6.2875 H        1 ZINC000036056301    0.1400
35     H35     6.1454   -3.1563    5.8124 H        1 ZINC000036056301    0.1300
36     H36     3.7283   -2.7345    4.3356 H        1 ZINC000036056301    0.4200
37     H37     2.5737   -1.7252    5.3489 H        1 ZINC000036056301    0.4100
38     H38     1.4285   -2.5466    6.2636 H        1 ZINC000036056301    0.4100
39     H39    -2.4508   -2.3207    3.8685 H        1 ZINC000036056301    0.2100
@<TRIPOS>BOND
1     1     2     1
2     1     24    1
3     1     25    1
4     1     26    1
5     2     3     1
6     2     4     1
7     2     27    1
8     3     28    1
9     3     29    1
10    3     30    1
11    4     23    1
12    4     5     1
13    5     6     2
14    6     7     1
15    6     17    1
16    7     16    1
17    7     8     2
18    8     9     1
19    8     31    1
20    9     15    ar
21    9     10    ar
22    10    11    ar
23    10    32    1
24    11    12    1
25    11    13    ar
26    12    33    1
27    13    14    ar
28    13    34    1
29    14    15    ar
30    14    35    1
31    15    16    1
32    16    36    1
33    17    23    ar
34    17    18    ar
35    18    19    1
36    18    20    ar
37    19    37    1
38    19    38    1
39    20    21    ar
40    21    22    ar
41    21    39    1
42    22    23    ar
@<TRIPOS>SUBSTRUCTURE
1   ZINC000036056301 1     RESIDUE    1   A     ZIN   1


@<TRIPOS>MOLECULE
CC(C)N1C2=NC=NC(=C2C(=N1)C3=CC(=CC=C3)C(=O)NC4=NCCS4)N
  46   49    0    0    0
SMALL
USER_CHARGES
NO_NAME
@<TRIPOS>ATOM
    1 C1        0.3471    -2.5632     0.7980 C.3    1 <0>      -0.1600
    2 C2       -0.3719    -2.4365    -0.5466 C.3    1 <0>       0.1600
    3 C3       -0.6883    -3.8316    -1.0891 C.3    1 <0>      -0.1600
    4 N4       -1.6186    -1.6888    -0.3651 N.pl3  1 <0>      -0.3700
    5 N5       -2.6721    -2.0658     0.4744 N.2    1 <0>      -0.2200
    6 C6       -3.6368    -1.1793     0.4054 C.2    1 <0>       0.1600
    7 C7       -4.9216    -1.2203     1.1444 C.ar   1 <0>      -0.0200
    8 C8       -6.1175    -0.9432     0.4822 C.ar   1 <0>      -0.0800
    9 C9       -7.3160    -0.9812     1.1682 C.ar   1 <0>      -0.1200
   10 C10      -7.3388    -1.2932     2.5125 C.ar   1 <0>      -0.0700
   11 C11      -6.1480    -1.5723     3.1875 C.ar   1 <0>      -0.1300
   12 C12      -6.1731    -1.9059     4.6272 C.2    1 <0>       0.5600
   13 O13      -5.1362    -2.1484     5.2128 O.2    1 <0>      -0.4600
   14 N14      -7.3458    -1.9412     5.2905 N.am   1 <0>      -0.6300
   15 C15      -7.3692    -2.2529     6.6358 C.2    1 <0>       0.4000
   16 N16      -6.3354    -2.5189     7.3479 N.2    1 <0>      -0.5200
   17 C17      -6.4884    -2.8317     8.7513 C.3    1 <0>       0.0500
   18 C18      -7.9655    -2.7877     9.1732 C.3    1 <0>      -0.1100
   19 S19      -8.8268    -2.3369     7.6321 S.3    1 <0>      -0.1900
   20 C20      -4.9369    -1.5409     2.4985 C.ar   1 <0>      -0.0200
   21 C21      -3.2110    -0.1431    -0.5350 C.ar   1 <0>      -0.3200
   22 C22      -3.7773     1.0436    -1.0287 C.ar   1 <0>       0.5200
   23 N23      -5.0294     1.4560    -0.6155 N.pl3  1 <0>      -0.8300
   24 N24      -3.0780     1.7603    -1.9032 N.ar   1 <0>      -0.6000
   25 C25      -1.8800     1.3710    -2.3015 C.ar   1 <0>       0.3900
   26 N26      -1.3106     0.2681    -1.8671 N.ar   1 <0>      -0.5700
   27 C27      -1.9297    -0.5145    -0.9837 C.ar   1 <0>       0.3800
   28 H28       1.2747    -3.1195     0.6630 H      1 <0>       0.0800
   29 H29       0.5726    -1.5693     1.1845 H      1 <0>       0.0600
   30 H30      -0.2936    -3.0910     1.5043 H      1 <0>       0.0700
   31 H31       0.2688    -1.9087    -1.2529 H      1 <0>       0.1100
   32 H32      -1.3291    -4.3595    -0.3828 H      1 <0>       0.0700
   33 H33      -1.2006    -3.7414    -2.0470 H      1 <0>       0.0600
   34 H34       0.2392    -4.3880    -1.2241 H      1 <0>       0.0800
   35 H35      -6.1065    -0.6980    -0.5696 H      1 <0>       0.1400
   36 H36      -8.2389    -0.7654     0.6506 H      1 <0>       0.1400
   37 H37      -8.2789    -1.3213     3.0435 H      1 <0>       0.1300
   38 H38      -8.1734    -1.7476     4.8230 H      1 <0>       0.4200
   39 H39      -6.0924    -3.8295     8.9402 H      1 <0>       0.1100
   40 H40      -5.9263    -2.1084     9.3420 H      1 <0>       0.1100
   41 H41      -8.2930    -3.7642     9.5298 H      1 <0>       0.1100
   42 H42      -8.1251    -2.0253     9.9357 H      1 <0>       0.1100
   43 H43      -4.0133    -1.7562     3.0152 H      1 <0>       0.1500
   44 H44      -5.4311     1.0670     0.1771 H      1 <0>       0.4100
   45 H45      -5.5068     2.1346    -1.1180 H      1 <0>       0.4100
   46 H46      -1.3466     1.9835    -3.0134 H      1 <0>       0.2100
@<TRIPOS>BOND
   1    1    2 1
   2    1   28 1
   3    1   29 1
   4    1   30 1
   5    2    3 1
   6    2    4 1
   7    2   31 1
   8    3   32 1
   9    3   33 1
  10    3   34 1
  11    4   27 1
  12    4    5 1
  13    5    6 2
  14    6    7 1
  15    6   21 1
  16    7   20 ar
  17    7    8 ar
  18    8    9 ar
  19    8   35 1
  20    9   10 ar
  21    9   36 1
  22   10   11 ar
  23   10   37 1
  24   11   12 1
  25   11   20 ar
  26   12   13 2
  27   12   14 am
  28   14   15 1
  29   14   38 1
  30   15   19 1
  31   15   16 2
  32   16   17 1
  33   17   18 1
  34   17   39 1
  35   17   40 1
  36   18   19 1
  37   18   41 1
  38   18   42 1
  39   20   43 1
  40   21   27 ar
  41   21   22 ar
  42   22   23 1
  43   22   24 ar
  44   23   44 1
  45   23   45 1
  46   24   25 ar
  47   25   26 ar
  48   25   46 1
  49   26   27 ar


@<TRIPOS>MOLECULE
CC(C)N1C2=NC=NC(=C2C(=N1)C3=CC(=C(C=C3)Br)O)N
35    37    1     0     0
SMALL
USER_CHARGES
@<TRIPOS>ATOM
1      C1      0.4047    0.7165    0.7744 C.3      1 ZINC000008581906   -0.1600
2      C2      0.2054   -0.7201    0.2871 C.3      1 ZINC000008581906    0.1600
3      C3      0.8799   -1.6874    1.2619 C.3      1 ZINC000008581906   -0.1600
4      N4     -1.2273   -1.0176    0.2168 N.pl3    1 ZINC000008581906   -0.3700
5      N5     -2.1167   -0.9684    1.2954 N.2      1 ZINC000008581906   -0.2200
6      C6     -3.3235   -1.2904    0.8936 C.2      1 ZINC000008581906    0.1600
7      C7     -4.5415   -1.3548    1.7364 C.ar     1 ZINC000008581906    0.0100
8      C8     -5.4127   -2.4373    1.6242 C.ar     1 ZINC000008581906   -0.1200
9      C9     -6.5460   -2.4953    2.4103 C.ar     1 ZINC000008581906   -0.0700
10     C10    -6.8205   -1.4817    3.3101 C.ar     1 ZINC000008581906   -0.1100
11     Br11   -8.3751   -1.5689    4.3831 Br       1 ZINC000008581906   -0.0300
12     C12    -5.9571   -0.3998    3.4282 C.ar     1 ZINC000008581906    0.1400
13     O13    -6.2304    0.5941    4.3142 O.3      1 ZINC000008581906   -0.4800
14     C14    -4.8158   -0.3362    2.6470 C.ar     1 ZINC000008581906   -0.1100
15     C15    -3.2455   -1.5737   -0.5392 C.ar     1 ZINC000008581906   -0.3200
16     C16    -4.1660   -1.9612   -1.5267 C.ar     1 ZINC000008581906    0.5200
17     N17    -5.4974   -2.1586   -1.2151 N.pl3    1 ZINC000008581906   -0.8300
18     N18    -3.7241   -2.1328   -2.7688 N.ar     1 ZINC000008581906   -0.6000
19     C19    -2.4522   -1.9450   -3.0726 C.ar     1 ZINC000008581906    0.3900
20     N20    -1.5552   -1.5828   -2.1819 N.ar     1 ZINC000008581906   -0.5700
21     C21    -1.9019   -1.3798   -0.9111 C.ar     1 ZINC000008581906    0.3800
22     H22     1.4706    0.9379    0.8267 H        1 ZINC000008581906    0.0800
23     H23    -0.0759    1.4056    0.0799 H        1 ZINC000008581906    0.0600
24     H24    -0.0389    0.8294    1.7636 H        1 ZINC000008581906    0.0700
25     H25     0.6490   -0.8330   -0.7021 H        1 ZINC000008581906    0.1100
26     H26     0.7380   -2.7109    0.9148 H        1 ZINC000008581906    0.0600
27     H27     1.9459   -1.4661    1.3143 H        1 ZINC000008581906    0.0800
28     H28     0.4364   -1.5745    2.2512 H        1 ZINC000008581906    0.0700
29     H29    -5.2012   -3.2303    0.9221 H        1 ZINC000008581906    0.1400
30     H30    -7.2202   -3.3344    2.3221 H        1 ZINC000008581906    0.1500
31     H31    -5.8551    0.4511    5.1938 H        1 ZINC000008581906    0.4000
32     H32    -4.1437    0.5043    2.7378 H        1 ZINC000008581906    0.1500
33     H33    -5.8563   -1.8166   -0.3814 H        1 ZINC000008581906    0.4100
34     H34    -6.0733   -2.6392   -1.8302 H        1 ZINC000008581906    0.4100
35     H35    -2.1361   -2.0955   -4.0942 H        1 ZINC000008581906    0.2100
@<TRIPOS>BOND
1     1     2     1
2     1     22    1
3     1     23    1
4     1     24    1
5     2     3     1
6     2     4     1
7     2     25    1
8     3     26    1
9     3     27    1
10    3     28    1
11    4     21    1
12    4     5     1
13    5     6     2
14    6     7     1
15    6     15    1
16    7     14    ar
17    7     8     ar
18    8     9     ar
19    8     29    1
20    9     10    ar
21    9     30    1
22    10    11    1
23    10    12    ar
24    12    13    1
25    12    14    ar
26    13    31    1
27    14    32    1
28    15    21    ar
29    15    16    ar
30    16    17    1
31    16    18    ar
32    17    33    1
33    17    34    1
34    18    19    ar
35    19    20    ar
36    19    35    1
37    20    21    ar
@<TRIPOS>SUBSTRUCTURE
1   ZINC000008581906 1     RESIDUE    1   A     ZIN   1


@<TRIPOS>MOLECULE
CC(C)N1C2=NC=NC(=C2C(=N1)C3=CC4=C(C=C3)OC(=N4)N)N
  38   41    0    0    0
SMALL
USER_CHARGES
NO_NAME
@<TRIPOS>ATOM
    1 C1        0.4053     0.7107     0.7775 C.3    1 <0>      -0.1600
    2 C2        0.2054    -0.7249     0.2876 C.3    1 <0>       0.1600
    3 C3        0.8794    -1.6943     1.2608 C.3    1 <0>      -0.1600
    4 N4       -1.2274    -1.0216     0.2167 N.pl3  1 <0>      -0.3700
    5 N5       -2.1169    -0.9738     1.2954 N.2    1 <0>      -0.2300
    6 C6       -3.3239    -1.2938     0.8928 C.2    1 <0>       0.1700
    7 C7       -4.5422    -1.3587     1.7355 C.ar   1 <0>      -0.0100
    8 C8       -5.4140    -2.4443     1.6184 C.ar   1 <0>      -0.1100
    9 C9       -6.5486    -2.5129     2.3975 C.ar   1 <0>      -0.0700
   10 C10      -6.8309    -1.5027     3.3039 C.ar   1 <0>       0.0000
   11 O11      -7.8378    -1.2925     4.1835 O.3    1 <0>      -0.2300
   12 C12      -7.6047    -0.1310     4.8193 C.2    1 <0>       0.5100
   13 N13      -8.4159     0.4137     5.7887 N.pl3  1 <0>      -0.7900
   14 N14      -6.4944     0.4060     4.3827 N.2    1 <0>      -0.5400
   15 C15      -5.9611    -0.4078     3.4296 C.ar   1 <0>       0.0700
   16 C16      -4.8120    -0.3424     2.6446 C.ar   1 <0>      -0.0400
   17 C17      -3.2461    -1.5740    -0.5406 C.ar   1 <0>      -0.3200
   18 C18      -4.1669    -1.9585    -1.5289 C.ar   1 <0>       0.5200
   19 N19      -5.4985    -2.1553    -1.2179 N.pl3  1 <0>      -0.8300
   20 N20      -3.7251    -2.1279    -2.7714 N.ar   1 <0>      -0.6000
   21 C21      -2.4530    -1.9407    -3.0746 C.ar   1 <0>       0.3900
   22 N22      -1.5556    -1.5812    -2.1831 N.ar   1 <0>      -0.5700
   23 C23      -1.9021    -1.3814    -0.9118 C.ar   1 <0>       0.3800
   24 H24       1.4714     0.9315     0.8303 H      1 <0>       0.0800
   25 H25      -0.0748     1.4013     0.0842 H      1 <0>       0.0600
   26 H26      -0.0382     0.8221     1.7669 H      1 <0>       0.0700
   27 H27       0.6490    -0.8363    -0.7018 H      1 <0>       0.1100
   28 H28       1.9455    -1.4735     1.3136 H      1 <0>       0.0800
   29 H29       0.4359    -1.5829     2.2502 H      1 <0>       0.0700
   30 H30       0.7370    -2.7170     0.9118 H      1 <0>       0.0600
   31 H31      -5.1978    -3.2335     0.9135 H      1 <0>       0.1500
   32 H32      -7.2187    -3.3545     2.3017 H      1 <0>       0.1400
   33 H33      -9.2255    -0.0472     6.0589 H      1 <0>       0.4200
   34 H34      -8.1780     1.2585     6.2018 H      1 <0>       0.4400
   35 H35      -4.1360     0.4944     2.7401 H      1 <0>       0.1400
   36 H36      -5.8574    -1.8137    -0.3840 H      1 <0>       0.4100
   37 H37      -6.0745    -2.6350    -1.8334 H      1 <0>       0.4100
   38 H38      -2.1369    -2.0894    -4.0966 H      1 <0>       0.2100
@<TRIPOS>BOND
   1    1    2 1
   2    1   24 1
   3    1   25 1
   4    1   26 1
   5    2    3 1
   6    2    4 1
   7    2   27 1
   8    3   28 1
   9    3   29 1
  10    3   30 1
  11    4   23 1
  12    4    5 1
  13    5    6 2
  14    6    7 1
  15    6   17 1
  16    7   16 ar
  17    7    8 ar
  18    8    9 ar
  19    8   31 1
  20    9   10 ar
  21    9   32 1
  22   10   15 ar
  23   10   11 1
  24   11   12 1
  25   12   13 1
  26   12   14 2
  27   13   33 1
  28   13   34 1
  29   14   15 1
  30   15   16 ar
  31   16   35 1
  32   17   23 ar
  33   17   18 ar
  34   18   19 1
  35   18   20 ar
  36   19   36 1
  37   19   37 1
  38   20   21 ar
  39   21   22 ar
  40   21   38 1
  41   22   23 ar


@<TRIPOS>MOLECULE
C1CCC(C1)N2C3=NC=NC(=C3C(=N2)C4=CN=C5C(=C4)C=CN5)N
  41   45    0    0    0
SMALL
USER_CHARGES
NO_NAME
@<TRIPOS>ATOM
    1 N1       -0.0189     1.3773    -0.0139 N.pl3  1 <0>      -0.8300
    2 C2        0.0002    -0.0040    -0.0175 C.ar   1 <0>       0.5200
    3 C3       -1.1898    -0.7407     0.0997 C.ar   1 <0>      -0.3200
    4 C4       -2.6058    -0.4028     0.2412 C.2    1 <0>       0.1800
    5 C5       -3.1812     0.9625     0.3002 C.ar   1 <0>      -0.1100
    6 C6       -2.7572     1.9486    -0.5947 C.ar   1 <0>       0.1500
    7 N7       -3.2539     3.1650    -0.5593 N.ar   1 <0>      -0.4900
    8 C8       -4.1797     3.5182     0.3234 C.ar   1 <0>       0.2900
    9 N9       -4.8452     4.6967     0.5634 N.pl3  1 <0>      -0.5800
   10 C10      -5.7185     4.5387     1.6059 C.2    1 <0>       0.0700
   11 C11      -5.6540     3.2813     2.0706 C.2    1 <0>      -0.1900
   12 C12      -4.6580     2.5790     1.2584 C.ar   1 <0>      -0.1500
   13 C13      -4.1565     1.2776     1.2454 C.ar   1 <0>       0.0100
   14 N14      -3.2728    -1.5306     0.3064 N.2    1 <0>      -0.2300
   15 N15      -2.3894    -2.6116     0.2170 N.pl3  1 <0>      -0.3700
   16 C16      -2.7748    -4.0246     0.2530 C.3    1 <0>       0.1600
   17 C17      -3.5473    -4.3287     1.5532 C.3    1 <0>      -0.1300
   18 C18      -5.0371    -4.2123     1.1460 C.3    1 <0>      -0.1200
   19 C19      -5.0515    -4.8246    -0.2767 C.3    1 <0>      -0.1200
   20 C20      -3.7312    -4.3399    -0.9105 C.3    1 <0>      -0.1300
   21 C21      -1.1145    -2.1462     0.0906 C.ar   1 <0>       0.3800
   22 N22       0.0820    -2.7211    -0.0285 N.ar   1 <0>      -0.5700
   23 C23       1.1700    -1.9902    -0.1352 C.ar   1 <0>       0.3900
   24 N24       1.1450    -0.6694    -0.1376 N.ar   1 <0>      -0.6000
   25 H25       0.7538     1.8739    -0.3258 H      1 <0>       0.4100
   26 H26      -0.8065     1.8507     0.2968 H      1 <0>       0.4100
   27 H27      -2.0051     1.7062    -1.3309 H      1 <0>       0.1700
   28 H28      -4.7149     5.5199     0.0671 H      1 <0>       0.4200
   29 H29      -6.3634     5.3117     1.9969 H      1 <0>       0.1800
   30 H30      -6.2265     2.8668     2.8872 H      1 <0>       0.1600
   31 H31      -4.5106     0.5375     1.9478 H      1 <0>       0.1400
   32 H32      -1.8879    -4.6550     0.1886 H      1 <0>       0.1100
   33 H33      -3.3249    -5.3371     1.9021 H      1 <0>       0.0800
   34 H34      -3.3035    -3.5956     2.3221 H      1 <0>       0.0700
   35 H35      -5.6685    -4.7896     1.8214 H      1 <0>       0.0700
   36 H36      -5.3502    -3.1685     1.1205 H      1 <0>       0.0800
   37 H37      -5.0720    -5.9131    -0.2233 H      1 <0>       0.0700
   38 H38      -5.9055    -4.4533    -0.8432 H      1 <0>       0.0700
   39 H39      -3.9086    -3.4416    -1.5019 H      1 <0>       0.0800
   40 H40      -3.3088    -5.1239    -1.5390 H      1 <0>       0.0800
   41 H41       2.1225    -2.4903    -0.2297 H      1 <0>       0.2100
@<TRIPOS>BOND
   1    1    2 1
   2    1   25 1
   3    1   26 1
   4    2   24 ar
   5    2    3 ar
   6    3   21 ar
   7    3    4 1
   8    4    5 1
   9    4   14 2
  10    5   13 ar
  11    5    6 ar
  12    6    7 ar
  13    6   27 1
  14    7    8 ar
  15    8   12 ar
  16    8    9 1
  17    9   10 1
  18    9   28 1
  19   10   11 2
  20   10   29 1
  21   11   12 1
  22   11   30 1
  23   12   13 ar
  24   13   31 1
  25   14   15 1
  26   15   16 1
  27   15   21 1
  28   16   20 1
  29   16   17 1
  30   16   32 1
  31   17   18 1
  32   17   33 1
  33   17   34 1
  34   18   19 1
  35   18   35 1
  36   18   36 1
  37   19   20 1
  38   19   37 1
  39   19   38 1
  40   20   39 1
  41   20   40 1
  42   21   22 ar
  43   22   23 ar
  44   23   24 ar
  45   23   41 1


@<TRIPOS>MOLECULE
COC(=O)NC1=CC=C(C=C1)C2=NC3=C(C=NN3C4CCN(CC4)C(=O)OC)C(=N2)N5CCOCC5
65    69    1     0     0
SMALL
USER_CHARGES
@<TRIPOS>ATOM
1      C1      0.9677    1.1727   -0.7442 C.3      1 ZINC000043013490    0.0600
2      O2      0.4665   -0.1327   -0.3529 O.3      1 ZINC000043013490   -0.3700
3      C3      1.0896   -0.7446    0.6719 C.2      1 ZINC000043013490    0.6500
4      O4      2.0265   -0.2026    1.2241 O.2      1 ZINC000043013490   -0.5500
5      N5      0.6742   -1.9583    1.0852 N.am     1 ZINC000043013490   -0.6500
6      C6      1.3792   -2.6355    2.0833 C.ar     1 ZINC000043013490    0.1800
7      C7      1.9668   -1.9234    3.1227 C.ar     1 ZINC000043013490   -0.1300
8      C8      2.6624   -2.5890    4.1086 C.ar     1 ZINC000043013490   -0.0400
9      C9      2.7767   -3.9786    4.0631 C.ar     1 ZINC000043013490   -0.0600
10     C10     3.5236   -4.6968    5.1219 C.ar     1 ZINC000043013490    0.4400
11     N11     3.6214   -6.0212    5.0509 N.ar     1 ZINC000043013490   -0.5800
12     C12     4.2797   -6.7104    5.9737 C.ar     1 ZINC000043013490    0.4500
13     N13     4.3770   -8.0858    5.8923 N.3      1 ZINC000043013490   -0.4700
14     C14     5.7830   -8.5155    5.8950 C.3      1 ZINC000043013490    0.0200
15     C15     5.8436  -10.0450    5.8640 C.3      1 ZINC000043013490    0.0600
16     O16     5.1338  -10.5220    4.7176 O.3      1 ZINC000043013490   -0.3800
17     C17     3.7610  -10.1225    4.6831 C.3      1 ZINC000043013490    0.0600
18     C18     3.6793   -8.5938    4.7022 C.3      1 ZINC000043013490    0.0300
19     C19     4.8778   -6.0074    7.0389 C.ar     1 ZINC000043013490   -0.3000
20     C20     5.6341   -6.3802    8.1705 C.2      1 ZINC000043013490    0.1000
21     N21     5.9394   -5.3031    8.8367 N.2      1 ZINC000043013490   -0.2400
22     N22     5.4084   -4.1806    8.1889 N.pl3    1 ZINC000043013490   -0.3700
23     C23     5.5396   -2.7908    8.6331 C.3      1 ZINC000043013490    0.1700
24     C24     4.9158   -2.6385   10.0223 C.3      1 ZINC000043013490   -0.1400
25     C25     5.0239   -1.1771   10.4688 C.3      1 ZINC000043013490    0.1300
26     N26     6.4309   -0.7614   10.3903 N.am     1 ZINC000043013490   -0.6000
27     C27     7.0475   -0.2194   11.4591 C.2      1 ZINC000043013490    0.6500
28     O28     6.4394   -0.0704   12.5005 O.2      1 ZINC000043013490   -0.5700
29     O29     8.3373    0.1570   11.3730 O.3      1 ZINC000043013490   -0.3700
30     C30     8.9367    0.7333   12.5634 C.3      1 ZINC000043013490    0.0600
31     C31     7.1532   -0.9483    9.1245 C.3      1 ZINC000043013490    0.1200
32     C32     7.0212   -2.4123    8.6931 C.3      1 ZINC000043013490   -0.1400
33     C33     4.7482   -4.6043    7.0733 C.ar     1 ZINC000043013490    0.3700
34     N34     4.0736   -3.9963    6.1012 N.ar     1 ZINC000043013490   -0.5500
35     C35     2.1861   -4.6908    3.0190 C.ar     1 ZINC000043013490   -0.0400
36     C36     1.4871   -4.0208    2.0384 C.ar     1 ZINC000043013490   -0.1500
37     H37     2.0114    1.0856   -1.0460 H        1 ZINC000043013490    0.0700
38     H38     0.3786    1.5527   -1.5789 H        1 ZINC000043013490    0.1100
39     H39     0.8892    1.8596    0.0985 H        1 ZINC000043013490    0.0700
40     H40    -0.1144   -2.3616    0.6897 H        1 ZINC000043013490    0.4200
41     H41     1.8784   -0.8476    3.1573 H        1 ZINC000043013490    0.1500
42     H42     3.1190   -2.0353    4.9157 H        1 ZINC000043013490    0.1400
43     H43     6.2882   -8.1134    5.0169 H        1 ZINC000043013490    0.0600
44     H44     6.2735   -8.1501    6.7972 H        1 ZINC000043013490    0.1000
45     H45     6.8834  -10.3670    5.8082 H        1 ZINC000043013490    0.1100
46     H46     5.3858  -10.4458    6.7683 H        1 ZINC000043013490    0.0700
47     H47     3.2947  -10.5006    3.7733 H        1 ZINC000043013490    0.1100
48     H48     3.2427  -10.5256    5.5531 H        1 ZINC000043013490    0.0600
49     H49     2.6343   -8.2856    4.7337 H        1 ZINC000043013490    0.1000
50     H50     4.1509   -8.1929    3.8050 H        1 ZINC000043013490    0.0700
51     H51     5.9123   -7.3885    8.4393 H        1 ZINC000043013490    0.2000
52     H52     5.0254   -2.1349    7.9306 H        1 ZINC000043013490    0.1100
53     H53     3.8664   -2.9305    9.9839 H        1 ZINC000043013490    0.0900
54     H54     5.4455   -3.2755   10.7308 H        1 ZINC000043013490    0.0900
55     H55     4.4203   -0.5492    9.8135 H        1 ZINC000043013490    0.0800
56     H56     4.6715   -1.0818   11.4959 H        1 ZINC000043013490    0.1100
57     H57     8.3880    1.6310   12.8483 H        1 ZINC000043013490    0.0600
58     H58     8.8966    0.0094   13.3773 H        1 ZINC000043013490    0.0600
59     H59     9.9755    0.9922   12.3582 H        1 ZINC000043013490    0.1000
60     H60     6.7232   -0.3018    8.3595 H        1 ZINC000043013490    0.0800
61     H61     8.2057   -0.7021    9.2646 H        1 ZINC000043013490    0.1000
62     H62     7.5311   -3.0514    9.4140 H        1 ZINC000043013490    0.0800
63     H63     7.4703   -2.5433    7.7086 H        1 ZINC000043013490    0.0800
64     H64     2.2732   -5.7666    2.9815 H        1 ZINC000043013490    0.1400
65     H65     1.0294   -4.5718    1.2301 H        1 ZINC000043013490    0.1400
@<TRIPOS>BOND
1     1     2     1
2     1     37    1
3     1     38    1
4     1     39    1
5     2     3     1
6     3     4     2
7     3     5     am
8     5     6     1
9     5     40    1
10    6     36    ar
11    6     7     ar
12    7     8     ar
13    7     41    1
14    8     9     ar
15    8     42    1
16    9     10    1
17    9     35    ar
18    10    34    ar
19    10    11    ar
20    11    12    ar
21    12    13    1
22    12    19    ar
23    13    18    1
24    13    14    1
25    14    15    1
26    14    43    1
27    14    44    1
28    15    16    1
29    15    45    1
30    15    46    1
31    16    17    1
32    17    18    1
33    17    47    1
34    17    48    1
35    18    49    1
36    18    50    1
37    19    33    ar
38    19    20    1
39    20    21    2
40    20    51    1
41    21    22    1
42    22    23    1
43    22    33    1
44    23    32    1
45    23    24    1
46    23    52    1
47    24    25    1
48    24    53    1
49    24    54    1
50    25    26    1
51    25    55    1
52    25    56    1
53    26    27    am
54    26    31    1
55    27    28    2
56    27    29    1
57    29    30    1
58    30    57    1
59    30    58    1
60    30    59    1
61    31    32    1
62    31    60    1
63    31    61    1
64    32    62    1
65    32    63    1
66    33    34    ar
67    35    36    ar
68    35    64    1
69    36    65    1
@<TRIPOS>SUBSTRUCTURE
1   ZINC000043013490 1     RESIDUE    1   A     ZIN   1


@<TRIPOS>MOLECULE
CC1CN(CC(O1)C)C2=NC3=C(C=CC(=N3)C4=CC(=C(C=C4)OC)CO)C(=N2)N5CCOCC5
65    69    1     0     0
SMALL
USER_CHARGES
@<TRIPOS>ATOM
1      C1     -0.2404    1.3991    0.1286 C.3      1 ZINC000049019448    0.0200
2      O2     -0.1904   -0.0288    0.1060 O.3      1 ZINC000049019448   -0.3100
3      C3      0.4596   -0.6393    1.1303 C.ar     1 ZINC000049019448    0.1600
4      C4      1.0325    0.1232    2.1398 C.ar     1 ZINC000049019448   -0.2100
5      C5      1.6929   -0.4933    3.1810 C.ar     1 ZINC000049019448   -0.0500
6      C6      1.7851   -1.8845    3.2201 C.ar     1 ZINC000049019448   -0.1100
7      C7      2.4937   -2.5504    4.3378 C.ar     1 ZINC000049019448    0.2700
8      C8      2.9692   -1.7768    5.4044 C.ar     1 ZINC000049019448   -0.2000
9      C9      3.6243   -2.3802    6.4418 C.ar     1 ZINC000049019448    0.0100
10     C10     3.7970   -3.7704    6.3965 C.ar     1 ZINC000049019448   -0.2300
11     C11     3.2936   -4.5001    5.2905 C.ar     1 ZINC000049019448    0.3900
12     N12     2.6582   -3.8631    4.3083 N.ar     1 ZINC000049019448   -0.4800
13     N13     3.4694   -5.8295    5.2675 N.ar     1 ZINC000049019448   -0.5400
14     C14     4.0975   -6.4400    6.2549 C.ar     1 ZINC000049019448    0.5400
15     N15     4.2566   -7.8111    6.1897 N.3      1 ZINC000049019448   -0.4600
16     C16     3.6873   -8.4645    7.3772 C.3      1 ZINC000049019448    0.0400
17     C17     3.9376   -9.9725    7.2925 C.3      1 ZINC000049019448    0.0900
18     H18     5.0105  -10.1647    7.3062 H        1 ZINC000049019448    0.0700
19     C19     3.2789  -10.6676    8.4858 C.3      1 ZINC000049019448   -0.1400
20     O20     3.3777  -10.4761    6.0767 O.3      1 ZINC000049019448   -0.3800
21     C21     3.9101   -9.8620    4.8999 C.3      1 ZINC000049019448    0.0900
22     H22     4.9821  -10.0510    4.8440 H        1 ZINC000049019448    0.0700
23     C23     3.2233  -10.4457    3.6636 C.3      1 ZINC000049019448   -0.1400
24     C24     3.6595   -8.3529    4.9604 C.3      1 ZINC000049019448    0.0400
25     N25     4.5843   -5.7925    7.3094 N.ar     1 ZINC000049019448   -0.5700
26     C26     4.4624   -4.4775    7.4269 C.ar     1 ZINC000049019448    0.4300
27     N27     4.9700   -3.8160    8.5240 N.3      1 ZINC000049019448   -0.4800
28     C28     6.3798   -3.4549    8.3157 C.3      1 ZINC000049019448    0.0200
29     C29     6.8852   -2.6718    9.5303 C.3      1 ZINC000049019448    0.0700
30     O30     6.6963   -3.4576   10.7102 O.3      1 ZINC000049019448   -0.3800
31     C31     5.3345   -3.8266   10.9441 C.3      1 ZINC000049019448    0.0600
32     C32     4.8134   -4.6214    9.7439 C.3      1 ZINC000049019448    0.0200
33     C33     1.2081   -2.6476    2.2046 C.ar     1 ZINC000049019448    0.0000
34     C34     0.5451   -2.0253    1.1691 C.ar     1 ZINC000049019448   -0.1300
35     C35    -0.0785   -2.8487    0.0717 C.3      1 ZINC000049019448    0.1300
36     O36     0.1513   -4.2357    0.3278 O.3      1 ZINC000049019448   -0.5700
37     H37     0.7736    1.7985    0.1114 H        1 ZINC000049019448    0.0600
38     H38    -0.7868    1.7574   -0.7439 H        1 ZINC000049019448    0.1000
39     H39    -0.7462    1.7307    1.0354 H        1 ZINC000049019448    0.0600
40     H40     0.9608    1.2004    2.1090 H        1 ZINC000049019448    0.1400
41     H41     2.1388    0.1002    3.9654 H        1 ZINC000049019448    0.1300
42     H42     2.8191   -0.7073    5.4071 H        1 ZINC000049019448    0.1500
43     H43     3.9987   -1.8014    7.2732 H        1 ZINC000049019448    0.1500
44     H44     4.1618   -8.0666    8.2742 H        1 ZINC000049019448    0.1000
45     H45     2.6146   -8.2753    7.4176 H        1 ZINC000049019448    0.0600
46     H46     2.2059  -10.4763    8.4707 H        1 ZINC000049019448    0.0600
47     H47     3.4574  -11.7411    8.4249 H        1 ZINC000049019448    0.0700
48     H48     3.7040  -10.2805    9.4118 H        1 ZINC000049019448    0.0700
49     H49     2.1515  -10.2551    3.7194 H        1 ZINC000049019448    0.0700
50     H50     3.6295   -9.9773    2.7671 H        1 ZINC000049019448    0.0800
51     H51     3.3995  -11.5206    3.6236 H        1 ZINC000049019448    0.0700
52     H52     2.5864   -8.1619    4.9622 H        1 ZINC000049019448    0.0700
53     H53     4.1137   -7.8735    4.0932 H        1 ZINC000049019448    0.1000
54     H54     6.9735   -4.3609    8.1940 H        1 ZINC000049019448    0.0600
55     H55     6.4692   -2.8376    7.4218 H        1 ZINC000049019448    0.0900
56     H56     7.9454   -2.4513    9.4058 H        1 ZINC000049019448    0.1100
57     H57     6.3272   -1.7398    9.6204 H        1 ZINC000049019448    0.0700
58     H58     5.2731   -4.4414   11.8421 H        1 ZINC000049019448    0.1100
59     H59     4.7313   -2.9283   11.0754 H        1 ZINC000049019448    0.0600
60     H60     3.7593   -4.8558    9.8924 H        1 ZINC000049019448    0.0900
61     H61     5.3820   -5.5461    9.6450 H        1 ZINC000049019448    0.0700
62     H62     1.2778   -3.7250    2.2319 H        1 ZINC000049019448    0.1600
63     H63    -1.1512   -2.6581    0.0392 H        1 ZINC000049019448    0.0600
64     H64     0.3680   -2.5771   -0.8848 H        1 ZINC000049019448    0.0600
65     H65    -0.2234   -4.8263   -0.3399 H        1 ZINC000049019448    0.3900
@<TRIPOS>BOND
1     1     2     1
2     1     37    1
3     1     38    1
4     1     39    1
5     2     3     1
6     3     34    ar
7     3     4     ar
8     4     5     ar
9     4     40    1
10    5     6     ar
11    5     41    1
12    6     7     1
13    6     33    ar
14    7     12    ar
15    7     8     ar
16    8     9     ar
17    8     42    1
18    9     10    ar
19    9     43    1
20    10    26    ar
21    10    11    ar
22    11    12    ar
23    11    13    ar
24    13    14    ar
25    14    15    1
26    14    25    ar
27    15    24    1
28    15    16    1
29    16    17    1
30    16    44    1
31    16    45    1
32    17    18    1
33    17    19    1
34    17    20    1
35    19    46    1
36    19    47    1
37    19    48    1
38    20    21    1
39    21    22    1
40    21    23    1
41    21    24    1
42    23    49    1
43    23    50    1
44    23    51    1
45    24    52    1
46    24    53    1
47    25    26    ar
48    26    27    1
49    27    32    1
50    27    28    1
51    28    29    1
52    28    54    1
53    28    55    1
54    29    30    1
55    29    56    1
56    29    57    1
57    30    31    1
58    31    32    1
59    31    58    1
60    31    59    1
61    32    60    1
62    32    61    1
63    33    34    ar
64    33    62    1
65    34    35    1
66    35    36    1
67    35    63    1
68    35    64    1
69    36    65    1
@<TRIPOS>SUBSTRUCTURE
1   ZINC000049019448 1     RESIDUE    1   A     ZIN   1


@<TRIPOS>MOLECULE
CC1COCCN1C2=NC(=NC3=C2C=CC(=N3)C4=CC(=C(C=C4)OC)CO)N5CCOCC5C
65    69    1     0     0
SMALL
USER_CHARGES
@<TRIPOS>ATOM
1      C1      4.4987    2.5822   -0.5818 C.3      1 ZINC000052509466    0.0200
2      O2      3.9110    1.2921   -0.4020 O.3      1 ZINC000052509466   -0.3100
3      C3      4.0625    0.3991   -1.4139 C.ar     1 ZINC000052509466    0.1600
4      C4      4.7687    0.7578   -2.5546 C.ar     1 ZINC000052509466   -0.2100
5      C5      4.9244   -0.1464   -3.5835 C.ar     1 ZINC000052509466   -0.0500
6      C6      4.3721   -1.4227   -3.4778 C.ar     1 ZINC000052509466   -0.1100
7      C7      4.5379   -2.3971   -4.5815 C.ar     1 ZINC000052509466    0.2600
8      C8      5.3451   -2.0609   -5.6758 C.ar     1 ZINC000052509466   -0.1900
9      C9      5.5060   -2.9521   -6.7001 C.ar     1 ZINC000052509466    0.0100
10     C10     4.8469   -4.1859   -6.6136 C.ar     1 ZINC000052509466   -0.2100
11     C11     4.0431   -4.4695   -5.4810 C.ar     1 ZINC000052509466    0.3700
12     N12     3.9243   -3.5672   -4.5084 N.ar     1 ZINC000052509466   -0.4700
13     N13     3.4216   -5.6563   -5.4183 N.ar     1 ZINC000052509466   -0.5300
14     C14     3.5584   -6.5371   -6.3918 C.ar     1 ZINC000052509466    0.5400
15     N15     2.8996   -7.7471   -6.2859 N.3      1 ZINC000052509466   -0.4700
16     C16     3.3642   -8.4989   -5.1110 C.3      1 ZINC000052509466    0.0300
17     C17     2.6538   -9.8543   -5.0656 C.3      1 ZINC000052509466    0.0700
18     O18     1.2391   -9.6452   -5.0498 O.3      1 ZINC000052509466   -0.3800
19     C19     0.7522   -8.9165   -6.1801 C.3      1 ZINC000052509466    0.0700
20     C20     1.4433   -7.5516   -6.2368 C.3      1 ZINC000052509466    0.0500
21     H21     1.1833   -6.9748   -5.3492 H        1 ZINC000052509466    0.0700
22     C22     0.9856   -6.7987   -7.4876 C.3      1 ZINC000052509466   -0.1400
23     N23     4.3025   -6.3101   -7.4702 N.ar     1 ZINC000052509466   -0.5300
24     C24     4.9574   -5.1681   -7.6274 C.ar     1 ZINC000052509466    0.4200
25     N25     5.7262   -4.9429   -8.7486 N.3      1 ZINC000052509466   -0.4900
26     C26     6.8934   -5.8363   -8.7751 C.3      1 ZINC000052509466    0.0200
27     C27     7.7494   -5.5124  -10.0025 C.3      1 ZINC000052509466    0.0700
28     O28     6.9485   -5.6328  -11.1812 O.3      1 ZINC000052509466   -0.3800
29     C29     5.8033   -4.7763  -11.1891 C.3      1 ZINC000052509466    0.0700
30     C30     4.9276   -5.0926   -9.9738 C.3      1 ZINC000052509466    0.0500
31     H31     4.5607   -6.1165  -10.0462 H        1 ZINC000052509466    0.0800
32     C32     3.7418   -4.1266   -9.9331 C.3      1 ZINC000052509466   -0.1500
33     C33     3.6636   -1.7801   -2.3303 C.ar     1 ZINC000052509466    0.0000
34     C34     3.5157   -0.8731   -1.3033 C.ar     1 ZINC000052509466   -0.1300
35     C35     2.7506   -1.2583   -0.0634 C.3      1 ZINC000052509466    0.1300
36     O36     2.2812   -2.6019   -0.1914 O.3      1 ZINC000052509466   -0.5700
37     H37     5.5747    2.4753   -0.7194 H        1 ZINC000052509466    0.0600
38     H38     4.0656    3.0594   -1.4610 H        1 ZINC000052509466    0.0600
39     H39     4.3040    3.1959    0.2977 H        1 ZINC000052509466    0.1000
40     H40     5.1962    1.7462   -2.6359 H        1 ZINC000052509466    0.1400
41     H41     5.4731    0.1334   -4.4707 H        1 ZINC000052509466    0.1300
42     H42     5.8385   -1.1007   -5.7104 H        1 ZINC000052509466    0.1500
43     H43     6.1239   -2.7117   -7.5527 H        1 ZINC000052509466    0.1600
44     H44     4.4408   -8.6544   -5.1808 H        1 ZINC000052509466    0.0900
45     H45     3.1348   -7.9372   -4.2055 H        1 ZINC000052509466    0.0700
46     H46     2.9257  -10.4375   -5.9454 H        1 ZINC000052509466    0.0600
47     H47     2.9523  -10.3917   -4.1655 H        1 ZINC000052509466    0.1100
48     H48     0.9689   -9.4724   -7.0923 H        1 ZINC000052509466    0.0600
49     H49    -0.3245   -8.7756   -6.0860 H        1 ZINC000052509466    0.1100
50     H50    -0.1031   -6.7470   -7.5025 H        1 ZINC000052509466    0.0700
51     H51     1.3972   -5.7895   -7.4752 H        1 ZINC000052509466    0.0500
52     H52     1.3365   -7.3234   -8.3763 H        1 ZINC000052509466    0.0700
53     H53     7.4841   -5.6904   -7.8707 H        1 ZINC000052509466    0.0900
54     H54     6.5579   -6.8720   -8.8284 H        1 ZINC000052509466    0.0700
55     H55     8.1291   -4.4938   -9.9229 H        1 ZINC000052509466    0.0600
56     H56     8.5853   -6.2098  -10.0576 H        1 ZINC000052509466    0.1100
57     H57     6.1263   -3.7362  -11.1441 H        1 ZINC000052509466    0.0600
58     H58     5.2316   -4.9412  -12.1025 H        1 ZINC000052509466    0.1100
59     H59     3.2072   -4.1675  -10.8821 H        1 ZINC000052509466    0.0700
60     H60     3.0688   -4.4114   -9.1244 H        1 ZINC000052509466    0.0500
61     H61     4.1047   -3.1129   -9.7638 H        1 ZINC000052509466    0.0700
62     H62     3.2347   -2.7676   -2.2454 H        1 ZINC000052509466    0.1600
63     H63     3.4047   -1.1831    0.8053 H        1 ZINC000052509466    0.0600
64     H64     1.9010   -0.5871    0.0624 H        1 ZINC000052509466    0.0600
65     H65     1.7789   -2.9175    0.5722 H        1 ZINC000052509466    0.3900
@<TRIPOS>BOND
1     1     2     1
2     1     37    1
3     1     38    1
4     1     39    1
5     2     3     1
6     3     34    ar
7     3     4     ar
8     4     5     ar
9     4     40    1
10    5     6     ar
11    5     41    1
12    6     7     1
13    6     33    ar
14    7     12    ar
15    7     8     ar
16    8     9     ar
17    8     42    1
18    9     10    ar
19    9     43    1
20    10    24    ar
21    10    11    ar
22    11    12    ar
23    11    13    ar
24    13    14    ar
25    14    15    1
26    14    23    ar
27    15    20    1
28    15    16    1
29    16    17    1
30    16    44    1
31    16    45    1
32    17    18    1
33    17    46    1
34    17    47    1
35    18    19    1
36    19    20    1
37    19    48    1
38    19    49    1
39    20    21    1
40    20    22    1
41    22    50    1
42    22    51    1
43    22    52    1
44    23    24    ar
45    24    25    1
46    25    30    1
47    25    26    1
48    26    27    1
49    26    53    1
50    26    54    1
51    27    28    1
52    27    55    1
53    27    56    1
54    28    29    1
55    29    30    1
56    29    57    1
57    29    58    1
58    30    31    1
59    30    32    1
60    32    59    1
61    32    60    1
62    32    61    1
63    33    34    ar
64    33    62    1
65    34    35    1
66    35    36    1
67    35    63    1
68    35    64    1
69    36    65    1
@<TRIPOS>SUBSTRUCTURE
1   ZINC000052509466 1     RESIDUE    1   A     ZIN   1


@<TRIPOS>MOLECULE
COC1=C(C=C2C(=C1)C(=C3C=COC3=N2)OC4=CN=CC=C4)OC
  38   41    0    0    0
SMALL
USER_CHARGES
NO_NAME
@<TRIPOS>ATOM
    1 C1       -0.0173     1.4248     0.0099 C.3    1 <0>       0.0200
    2 O2        0.0021    -0.0041     0.0020 O.3    1 <0>      -0.3000
    3 C3        0.6057    -0.6070    -1.0556 C.ar   1 <0>       0.1600
    4 C4        0.6501    -2.0076    -1.1200 C.ar   1 <0>       0.1300
    5 O5        0.0889    -2.7456    -0.1249 O.3    1 <0>      -0.3000
    6 C6        0.1671    -4.1671    -0.2485 C.3    1 <0>       0.0200
    7 C7        1.2503    -2.6363    -2.1712 C.ar   1 <0>      -0.1700
    8 C8        1.8295    -1.8736    -3.1990 C.ar   1 <0>      -0.1100
    9 C9        1.7866    -0.4576    -3.1375 C.ar   1 <0>       0.2000
   10 C10       1.1551     0.1585    -2.0425 C.ar   1 <0>      -0.1800
   11 N11       2.3339     0.2813    -4.1084 N.ar   1 <0>      -0.4600
   12 C12       2.9295    -0.2672    -5.1510 C.ar   1 <0>       0.3100
   13 O13       3.5413     0.2591    -6.2332 O.3    1 <0>      -0.1900
   14 C14       4.0072    -0.7091    -7.0434 C.2    1 <0>       0.0400
   15 C15       3.7257    -1.9151    -6.5359 C.2    1 <0>      -0.2000
   16 C16       3.0093    -1.6708    -5.2774 C.ar   1 <0>      -0.1800
   17 C17       2.4579    -2.4937    -4.2989 C.ar   1 <0>       0.1800
   18 O18       2.5235    -3.8437    -4.3994 O.3    1 <0>      -0.2400
   19 C19       3.5973    -4.4726    -3.8536 C.ar   1 <0>       0.0700
   20 C20       3.7197    -5.8563    -3.9319 C.ar   1 <0>      -0.1000
   21 C21       4.8324    -6.4523    -3.3603 C.ar   1 <0>      -0.1300
   22 C22       5.7768    -5.6594    -2.7359 C.ar   1 <0>       0.0700
   23 N23       5.6308    -4.3499    -2.6790 N.ar   1 <0>      -0.4500
   24 C24       4.5904    -3.7434    -3.2149 C.ar   1 <0>       0.0400
   25 H25       1.0053     1.8021     0.0021 H      1 <0>       0.0600
   26 H26      -0.5445     1.7859    -0.8732 H      1 <0>       0.0600
   27 H27      -0.5275     1.7763     0.9067 H      1 <0>       0.1100
   28 H28      -0.3176    -4.6336     0.6091 H      1 <0>       0.1100
   29 H29      -0.3346    -4.4804    -1.1641 H      1 <0>       0.0600
   30 H30       1.2130    -4.4717    -0.2849 H      1 <0>       0.0600
   31 H31       1.2804    -3.7151    -2.2129 H      1 <0>       0.1500
   32 H32       1.1123     1.2358    -1.9786 H      1 <0>       0.1600
   33 H33       4.5330    -0.5375    -7.9711 H      1 <0>       0.2200
   34 H34       3.9751    -2.8742    -6.9651 H      1 <0>       0.1700
   35 H35       2.9658    -6.4513    -4.4259 H      1 <0>       0.1500
   36 H36       4.9601    -7.5240    -3.4018 H      1 <0>       0.1500
   37 H37       6.6459    -6.1184    -2.2883 H      1 <0>       0.1600
   38 H38       4.5053    -2.6689    -3.1481 H      1 <0>       0.1500
@<TRIPOS>BOND
   1    1    2 1
   2    1   25 1
   3    1   26 1
   4    1   27 1
   5    2    3 1
   6    3   10 ar
   7    3    4 ar
   8    4    5 1
   9    4    7 ar
  10    5    6 1
  11    6   28 1
  12    6   29 1
  13    6   30 1
  14    7    8 ar
  15    7   31 1
  16    8   17 ar
  17    8    9 ar
  18    9   10 ar
  19    9   11 ar
  20   10   32 1
  21   11   12 ar
  22   12   16 ar
  23   12   13 1
  24   13   14 1
  25   14   15 2
  26   14   33 1
  27   15   16 1
  28   15   34 1
  29   16   17 ar
  30   17   18 1
  31   18   19 1
  32   19   24 ar
  33   19   20 ar
  34   20   21 ar
  35   20   35 1
  36   21   22 ar
  37   21   36 1
  38   22   23 ar
  39   22   37 1
  40   23   24 ar
  41   24   38 1


@<TRIPOS>MOLECULE
CC(=O)C1=CC=C(C=C1)NC2=C3C=COC3=NC4=C2C=CC(=C4)OC
  41   44    0    0    0
SMALL
USER_CHARGES
NO_NAME
@<TRIPOS>ATOM
    1 C1       -3.8073    -1.8115    -6.4953 C.3    1 <0>       0.0200
    2 O2       -3.3191    -2.4837    -5.3325 O.3    1 <0>      -0.3100
    3 C3       -1.9779    -2.4518    -5.1193 C.ar   1 <0>       0.1600
    4 C4       -1.1514    -1.7744    -6.0212 C.ar   1 <0>      -0.1900
    5 C5        0.1949    -1.7278    -5.8303 C.ar   1 <0>      -0.0400
    6 C6        0.7653    -2.3650    -4.7176 C.ar   1 <0>      -0.1500
    7 C7       -0.0622    -3.0551    -3.7961 C.ar   1 <0>       0.2200
    8 C8       -1.4503    -3.0818    -4.0157 C.ar   1 <0>      -0.1500
    9 N9        0.4680    -3.6668    -2.7318 N.ar   1 <0>      -0.4700
   10 C10       1.7674    -3.6562    -2.4948 C.ar   1 <0>       0.3200
   11 O11       2.5184    -4.1911    -1.5091 O.3    1 <0>      -0.1900
   12 C12       3.8227    -3.9135    -1.6907 C.2    1 <0>       0.0300
   13 C13       3.9919    -3.1850    -2.8008 C.2    1 <0>      -0.2000
   14 C14       2.6520    -2.9897    -3.3684 C.ar   1 <0>      -0.1900
   15 C15       2.1603    -2.3325    -4.4960 C.ar   1 <0>       0.2600
   16 N16       3.0098    -1.6720    -5.3683 N.pl3  1 <0>      -0.6900
   17 C17       3.4418    -2.3030    -6.5288 C.ar   1 <0>       0.2400
   18 C18       3.0026    -3.5919    -6.8233 C.ar   1 <0>      -0.2000
   19 C19       3.4250    -4.2157    -7.9622 C.ar   1 <0>      -0.0100
   20 C20       4.3010    -3.5574    -8.8353 C.ar   1 <0>      -0.2300
   21 C21       4.7573    -4.2238   -10.0608 C.2    1 <0>       0.4000
   22 C22       5.5846    -3.4662   -11.0672 C.3    1 <0>      -0.2000
   23 O23       4.4685    -5.3844   -10.2637 O.2    1 <0>      -0.4700
   24 C24       4.7399    -2.2611    -8.5354 C.ar   1 <0>      -0.0300
   25 C25       4.3084    -1.6426    -7.3970 C.ar   1 <0>      -0.2000
   26 H26      -3.5443    -0.7551    -6.4416 H      1 <0>       0.0600
   27 H27      -3.3587    -2.2529    -7.3853 H      1 <0>       0.0600
   28 H28      -4.8913    -1.9140    -6.5458 H      1 <0>       0.1100
   29 H29      -1.5864    -1.2830    -6.8789 H      1 <0>       0.1400
   30 H30       0.8233    -1.2018    -6.5337 H      1 <0>       0.1400
   31 H31      -2.0988    -3.6017    -3.3261 H      1 <0>       0.1500
   32 H32       4.6189    -4.2323    -1.0342 H      1 <0>       0.2200
   33 H33       4.9256    -2.8159    -3.1989 H      1 <0>       0.1600
   34 H34       3.3030    -0.7691    -5.1692 H      1 <0>       0.4200
   35 H35       2.3273    -4.0985    -6.1497 H      1 <0>       0.1200
   36 H36       3.0846    -5.2151    -8.1894 H      1 <0>       0.1300
   37 H37       5.6739    -2.4258   -10.7546 H      1 <0>       0.0800
   38 H38       6.5768    -3.9127   -11.1316 H      1 <0>       0.0900
   39 H39       5.1013    -3.5122   -12.0431 H      1 <0>       0.0900
   40 H40       5.4151    -1.7501    -9.2058 H      1 <0>       0.1400
   41 H41       4.6459    -0.6432    -7.1653 H      1 <0>       0.1300
@<TRIPOS>BOND
   1    1    2 1
   2    1   26 1
   3    1   27 1
   4    1   28 1
   5    2    3 1
   6    3    8 ar
   7    3    4 ar
   8    4    5 ar
   9    4   29 1
  10    5    6 ar
  11    5   30 1
  12    6   15 ar
  13    6    7 ar
  14    7    8 ar
  15    7    9 ar
  16    8   31 1
  17    9   10 ar
  18   10   14 ar
  19   10   11 1
  20   11   12 1
  21   12   13 2
  22   12   32 1
  23   13   14 1
  24   13   33 1
  25   14   15 ar
  26   15   16 1
  27   16   17 1
  28   16   34 1
  29   17   25 ar
  30   17   18 ar
  31   18   19 ar
  32   18   35 1
  33   19   20 ar
  34   19   36 1
  35   20   21 1
  36   20   24 ar
  37   21   22 1
  38   21   23 2
  39   22   37 1
  40   22   38 1
  41   22   39 1
  42   24   25 ar
  43   24   40 1
  44   25   41 1


@<TRIPOS>MOLECULE
CCC(=O)N1CCN(CC1)C2=C(C=C(C=C2)N3C(=O)C=CC4=CN=C5C=CC(=CC5=C43)C6=CC7=CC=CC=C7N=C6)C(F)(F)F
73    79    1     0     0
SMALL
USER_CHARGES
@<TRIPOS>ATOM
1      C1      0.5705    0.3832    5.1474 C.3      1 ZINC000064539506   -0.1400
2      C2      1.4119   -0.2590    4.0426 C.3      1 ZINC000064539506   -0.1400
3      C3      0.6520   -1.4114    3.4380 C.2      1 ZINC000064539506    0.5100
4      O4     -0.4844   -1.6416    3.7937 O.2      1 ZINC000064539506   -0.5400
5      N5      1.2351   -2.1861    2.5020 N.am     1 ZINC000064539506   -0.6200
6      C6      2.6484   -1.9986    2.1404 C.3      1 ZINC000064539506    0.1100
7      C7      3.3552   -3.3560    2.2190 C.3      1 ZINC000064539506    0.0400
8      N8      2.6277   -4.3317    1.3964 N.3      1 ZINC000064539506   -0.4800
9      C9      3.3301   -5.5374    1.3106 C.ar     1 ZINC000064539506    0.1800
10     C10     4.1796   -5.9211    2.3404 C.ar     1 ZINC000064539506   -0.1700
11     C11     4.8731   -7.1117    2.2555 C.ar     1 ZINC000064539506   -0.0500
12     C12     4.7219   -7.9255    1.1404 C.ar     1 ZINC000064539506    0.0900
13     N13     5.4259   -9.1338    1.0544 N.am     1 ZINC000064539506   -0.4600
14     C14     4.9508  -10.2310    1.6751 C.2      1 ZINC000064539506    0.5300
15     O15     3.9102  -10.1616    2.3067 O.2      1 ZINC000064539506   -0.5100
16     C16     5.6404  -11.4584    1.6038 C.2      1 ZINC000064539506   -0.2200
17     C17     6.8002  -11.5511    0.9044 C.2      1 ZINC000064539506    0.0000
18     C18     7.3030  -10.3988    0.2501 C.ar     1 ZINC000064539506   -0.1900
19     C19     8.5003  -10.4397   -0.4888 C.ar     1 ZINC000064539506    0.2000
20     N20     8.9614   -9.3745   -1.0914 N.ar     1 ZINC000064539506   -0.4900
21     C21     8.3291   -8.1926   -1.0433 C.ar     1 ZINC000064539506    0.1600
22     C22     8.8597   -7.0732   -1.7062 C.ar     1 ZINC000064539506   -0.0900
23     C23     8.2144   -5.8777   -1.6538 C.ar     1 ZINC000064539506   -0.0800
24     C24     7.0140   -5.7379   -0.9423 C.ar     1 ZINC000064539506   -0.0400
25     C25     6.3293   -4.4230   -0.9008 C.ar     1 ZINC000064539506   -0.1000
26     C26     5.2025   -4.2379   -0.0838 C.ar     1 ZINC000064539506    0.1100
27     N27     4.5782   -3.0889   -0.0277 N.ar     1 ZINC000064539506   -0.4300
28     C28     4.9820   -2.0346   -0.7445 C.ar     1 ZINC000064539506    0.1300
29     C29     4.2988   -0.8083   -0.6706 C.ar     1 ZINC000064539506   -0.1000
30     C30     4.7285    0.2510   -1.4092 C.ar     1 ZINC000064539506   -0.1000
31     C31     5.8399    0.1434   -2.2429 C.ar     1 ZINC000064539506   -0.1100
32     C32     6.5277   -1.0272   -2.3415 C.ar     1 ZINC000064539506   -0.1000
33     C33     6.1125   -2.1419   -1.5933 C.ar     1 ZINC000064539506   -0.1000
34     C34     6.8009   -3.3651   -1.6647 C.ar     1 ZINC000064539506   -0.0500
35     C35     6.4647   -6.8226   -0.2786 C.ar     1 ZINC000064539506   -0.1200
36     C36     7.1167   -8.0591   -0.3227 C.ar     1 ZINC000064539506   -0.1200
37     C37     6.5884   -9.1936    0.3362 C.ar     1 ZINC000064539506    0.2400
38     C38     3.8724   -7.5418    0.1104 C.ar     1 ZINC000064539506   -0.0400
39     C39     3.1742   -6.3546    0.1978 C.ar     1 ZINC000064539506   -0.1900
40     C40     2.2522   -5.9387   -0.9194 C.3      1 ZINC000064539506    0.5200
41     F41     2.3861   -6.8289   -1.9903 F        1 ZINC000064539506   -0.1800
42     F42     0.9299   -5.9539   -0.4628 F        1 ZINC000064539506   -0.1700
43     F43     2.5848   -4.6472   -1.3421 F        1 ZINC000064539506   -0.1500
44     C44     1.2676   -4.5500    1.9065 C.3      1 ZINC000064539506    0.0300
45     C45     0.4769   -3.2456    1.8194 C.3      1 ZINC000064539506    0.1200
46     H46     0.2852   -0.3767    5.8749 H        1 ZINC000064539506    0.0600
47     H47     1.1531    1.1599    5.6428 H        1 ZINC000064539506    0.0600
48     H48    -0.3262    0.8238    4.7116 H        1 ZINC000064539506    0.0600
49     H49     1.6241    0.4811    3.2709 H        1 ZINC000064539506    0.0900
50     H50     2.3487   -0.6230    4.4644 H        1 ZINC000064539506    0.0900
51     H51     2.7179   -1.6079    1.1252 H        1 ZINC000064539506    0.0900
52     H52     3.1152   -1.3019    2.8366 H        1 ZINC000064539506    0.0900
53     H53     4.3755   -3.2568    1.8485 H        1 ZINC000064539506    0.1200
54     H54     3.3752   -3.6962    3.2543 H        1 ZINC000064539506    0.0400
55     H55     4.2977   -5.2879    3.2073 H        1 ZINC000064539506    0.1600
56     H56     5.5336   -7.4101    3.0562 H        1 ZINC000064539506    0.1500
57     H57     5.2449  -12.3279    2.1076 H        1 ZINC000064539506    0.1600
58     H58     7.3322  -12.4892    0.8477 H        1 ZINC000064539506    0.1600
59     H59     9.0485  -11.3675   -0.5590 H        1 ZINC000064539506    0.1800
60     H60     9.7833   -7.1626   -2.2589 H        1 ZINC000064539506    0.1500
61     H61     8.6321   -5.0239   -2.1667 H        1 ZINC000064539506    0.1400
62     H62     4.8422   -5.0634    0.5121 H        1 ZINC000064539506    0.1700
63     H63     3.4352   -0.7071   -0.0299 H        1 ZINC000064539506    0.1400
64     H64     4.1992    1.1905   -1.3484 H        1 ZINC000064539506    0.1300
65     H65     6.1594    0.9996   -2.8185 H        1 ZINC000064539506    0.1300
66     H66     7.3878   -1.0987   -2.9907 H        1 ZINC000064539506    0.1300
67     H67     7.6681   -3.4794   -2.2981 H        1 ZINC000064539506    0.1400
68     H68     5.5403   -6.7141    0.2693 H        1 ZINC000064539506    0.1600
69     H69     3.7549   -8.1748   -0.7567 H        1 ZINC000064539506    0.1500
70     H70     0.7738   -5.3167    1.3095 H        1 ZINC000064539506    0.1100
71     H71     1.3166   -4.8736    2.9462 H        1 ZINC000064539506    0.0500
72     H72    -0.4928   -3.3723    2.3010 H        1 ZINC000064539506    0.1000
73     H73     0.3365   -2.9716    0.7738 H        1 ZINC000064539506    0.0800
@<TRIPOS>BOND
1     1     2     1
2     1     46    1
3     1     47    1
4     1     48    1
5     2     3     1
6     2     49    1
7     2     50    1
8     3     4     2
9     3     5     am
10    5     45    1
11    5     6     1
12    6     7     1
13    6     51    1
14    6     52    1
15    7     8     1
16    7     53    1
17    7     54    1
18    8     9     1
19    8     44    1
20    9     39    ar
21    9     10    ar
22    10    11    ar
23    10    55    1
24    11    12    ar
25    11    56    1
26    12    13    1
27    12    38    ar
28    13    37    1
29    13    14    am
30    14    15    2
31    14    16    1
32    16    17    2
33    16    57    1
34    17    18    1
35    17    58    1
36    18    37    ar
37    18    19    ar
38    19    20    ar
39    19    59    1
40    20    21    ar
41    21    36    ar
42    21    22    ar
43    22    23    ar
44    22    60    1
45    23    24    ar
46    23    61    1
47    24    25    1
48    24    35    ar
49    25    34    ar
50    25    26    ar
51    26    27    ar
52    26    62    1
53    27    28    ar
54    28    33    ar
55    28    29    ar
56    29    30    ar
57    29    63    1
58    30    31    ar
59    30    64    1
60    31    32    ar
61    31    65    1
62    32    33    ar
63    32    66    1
64    33    34    ar
65    34    67    1
66    35    36    ar
67    35    68    1
68    36    37    ar
69    38    39    ar
70    38    69    1
71    39    40    1
72    40    41    1
73    40    42    1
74    40    43    1
75    44    45    1
76    44    70    1
77    44    71    1
78    45    72    1
79    45    73    1
@<TRIPOS>SUBSTRUCTURE
1   ZINC000064539506 1     RESIDUE    1   A     ZIN   1


@<TRIPOS>MOLECULE
C1=CC(=CC(=C1)N2C(=O)C=CC3=CN=C4C=CC(=CC4=C32)C5=CN=C(C=C5)N)C(F)(F)F
47    51    1     0     0
SMALL
USER_CHARGES
@<TRIPOS>ATOM
1      N1      0.1403    1.3853   -1.5937 N.pl3    1 ZINC000071318831   -0.8500
2      C2      0.1597   -0.0032   -1.5510 C.ar     1 ZINC000071318831    0.4100
3      C3     -0.9685   -0.6929   -1.1160 C.ar     1 ZINC000071318831   -0.2400
4      C4     -0.9416   -2.0731   -1.0769 C.ar     1 ZINC000071318831   -0.0100
5      C5      0.2281   -2.7277   -1.4794 C.ar     1 ZINC000071318831   -0.1700
6      C6      0.3069   -4.2086   -1.4561 C.ar     1 ZINC000071318831   -0.0200
7      C7     -0.8158   -4.9727   -1.8041 C.ar     1 ZINC000071318831   -0.0800
8      C8     -0.7674   -6.3318   -1.7896 C.ar     1 ZINC000071318831   -0.0900
9      C9      0.4166   -6.9928   -1.4232 C.ar     1 ZINC000071318831    0.1600
10     N10     0.4705   -8.3333   -1.4069 N.ar     1 ZINC000071318831   -0.4900
11     C11     1.5531   -8.9857   -1.0723 C.ar     1 ZINC000071318831    0.2000
12     C12     2.7312   -8.3062   -0.7077 C.ar     1 ZINC000071318831   -0.1900
13     C13     2.7426   -6.9030   -0.7037 C.ar     1 ZINC000071318831    0.2400
14     C14     1.5553   -6.2273   -1.0707 C.ar     1 ZINC000071318831   -0.1200
15     C15     1.4912   -4.8306   -1.0959 C.ar     1 ZINC000071318831   -0.1300
16     N16     3.8786   -6.2257   -0.3530 N.am     1 ZINC000071318831   -0.4600
17     C17     3.8814   -4.8260   -0.3511 C.ar     1 ZINC000071318831    0.1200
18     C18     3.4784   -4.1309    0.7815 C.ar     1 ZINC000071318831   -0.0700
19     C19     3.4822   -2.7496    0.7802 C.ar     1 ZINC000071318831   -0.1000
20     C20     3.8863   -2.0590   -0.3474 C.ar     1 ZINC000071318831   -0.0500
21     C21     4.2883   -2.7483   -1.4771 C.ar     1 ZINC000071318831   -0.1800
22     C22     4.7285   -1.9916   -2.7038 C.3      1 ZINC000071318831    0.5100
23     F23     4.6443   -0.6168   -2.4587 F        1 ZINC000071318831   -0.1600
24     F24     6.0506   -2.3303   -3.0113 F        1 ZINC000071318831   -0.1700
25     F25     3.8992   -2.3251   -3.7800 F        1 ZINC000071318831   -0.1700
26     C26     4.2927   -4.1292   -1.4801 C.ar     1 ZINC000071318831   -0.0600
27     C27     4.9943   -6.8979   -0.0091 C.2      1 ZINC000071318831    0.5300
28     O28     5.9980   -6.2791    0.3007 O.2      1 ZINC000071318831   -0.5100
29     C29     5.0164   -8.3075   -0.0023 C.2      1 ZINC000071318831   -0.2200
30     C30     3.9067   -9.0101   -0.3449 C.2      1 ZINC000071318831    0.0000
31     C31     1.3166   -1.9696   -1.9024 C.ar     1 ZINC000071318831    0.1600
32     N32     1.2496   -0.6538   -1.9300 N.ar     1 ZINC000071318831   -0.5300
33     H33     0.9216    1.8721   -1.8996 H        1 ZINC000071318831    0.4100
34     H34    -0.6559    1.8678   -1.3214 H        1 ZINC000071318831    0.4100
35     H35    -1.8544   -0.1549   -0.8123 H        1 ZINC000071318831    0.1400
36     H36    -1.8023   -2.6337   -0.7434 H        1 ZINC000071318831    0.1400
37     H37    -1.7317   -4.4754   -2.0873 H        1 ZINC000071318831    0.1400
38     H38    -1.6420   -6.9046   -2.0604 H        1 ZINC000071318831    0.1500
39     H39     1.5434  -10.0657   -1.0753 H        1 ZINC000071318831    0.1800
40     H40     2.3571   -4.2414   -0.8323 H        1 ZINC000071318831    0.1600
41     H41     3.1619   -4.6697    1.6624 H        1 ZINC000071318831    0.1400
42     H42     3.1689   -2.2085    1.6607 H        1 ZINC000071318831    0.1500
43     H43     3.8878   -0.9790   -0.3462 H        1 ZINC000071318831    0.1500
44     H44     4.6067   -4.6669   -2.3626 H        1 ZINC000071318831    0.1400
45     H45     5.9195   -8.8302    0.2764 H        1 ZINC000071318831    0.1600
46     H46     3.9192  -10.0900   -0.3407 H        1 ZINC000071318831    0.1600
47     H47     2.2240   -2.4652   -2.2147 H        1 ZINC000071318831    0.1500
@<TRIPOS>BOND
1     1     2     1
2     1     33    1
3     1     34    1
4     2     32    ar
5     2     3     ar
6     3     4     ar
7     3     35    1
8     4     5     ar
9     4     36    1
10    5     6     1
11    5     31    ar
12    6     15    ar
13    6     7     ar
14    7     8     ar
15    7     37    1
16    8     9     ar
17    8     38    1
18    9     14    ar
19    9     10    ar
20    10    11    ar
21    11    12    ar
22    11    39    1
23    12    30    1
24    12    13    ar
25    13    14    ar
26    13    16    1
27    14    15    ar
28    15    40    1
29    16    17    1
30    16    27    am
31    17    26    ar
32    17    18    ar
33    18    19    ar
34    18    41    1
35    19    20    ar
36    19    42    1
37    20    21    ar
38    20    43    1
39    21    22    1
40    21    26    ar
41    22    23    1
42    22    24    1
43    22    25    1
44    26    44    1
45    27    28    2
46    27    29    1
47    29    30    2
48    29    45    1
49    30    46    1
50    31    32    ar
51    31    47    1
@<TRIPOS>SUBSTRUCTURE
1   ZINC000071318831 1     RESIDUE    1   A     ZIN   1


@<TRIPOS>MOLECULE
CC1=C(C=CC(=C1F)S(=O)(=O)C)C(=O)N2CCOC3=C(C2)C=C(C=C3)C4=CN=C(C=C4)N
54    57    1     0     0
SMALL
USER_CHARGES
@<TRIPOS>ATOM
1      C1     -1.8321    0.7560   -0.4127 C.3      1 ZINC000095550928   -0.1200
2      C2     -0.8458   -0.3640   -0.2032 C.ar     1 ZINC000095550928   -0.0900
3      C3     -0.0256   -0.7792   -1.2527 C.ar     1 ZINC000095550928   -0.0500
4      C4     -0.1206   -0.1219   -2.5737 C.2      1 ZINC000095550928    0.5600
5      O5     -0.0434    1.0883   -2.6573 O.2      1 ZINC000095550928   -0.5100
6      N6     -0.2926   -0.8645   -3.6852 N.am     1 ZINC000095550928   -0.6000
7      C7     -0.5227   -2.3054   -3.5686 C.3      1 ZINC000095550928    0.0600
8      C8     -1.8986   -2.6875   -4.0945 C.3      1 ZINC000095550928    0.0500
9      O9     -2.0074   -2.3524   -5.4826 O.3      1 ZINC000095550928   -0.3200
10     C10    -2.4607   -1.1036   -5.7559 C.ar     1 ZINC000095550928    0.1000
11     C11    -3.7260   -0.9240   -6.3008 C.ar     1 ZINC000095550928   -0.1200
12     C12    -4.2018    0.3490   -6.5360 C.ar     1 ZINC000095550928   -0.1000
13     C13    -3.4179    1.4589   -6.2263 C.ar     1 ZINC000095550928   -0.0300
14     C14    -3.9394    2.8279   -6.4604 C.ar     1 ZINC000095550928   -0.1600
15     C15    -5.2217    3.0180   -6.9873 C.ar     1 ZINC000095550928   -0.0200
16     C16    -5.6644    4.3108   -7.1881 C.ar     1 ZINC000095550928   -0.2400
17     C17    -4.8273    5.3740   -6.8623 C.ar     1 ZINC000095550928    0.4100
18     N18    -5.2656    6.6777   -7.0608 N.pl3    1 ZINC000095550928   -0.8500
19     N19    -3.6186    5.1593   -6.3650 N.ar     1 ZINC000095550928   -0.5400
20     C20    -3.1620    3.9412   -6.1534 C.ar     1 ZINC000095550928    0.1700
21     C21    -2.1402    1.2769   -5.6946 C.ar     1 ZINC000095550928   -0.0800
22     C22    -1.6682    0.0036   -5.4834 C.ar     1 ZINC000095550928   -0.1300
23     C23    -0.2541   -0.2228   -5.0032 C.3      1 ZINC000095550928    0.1600
24     C24     0.8853   -1.8175   -1.0506 C.ar     1 ZINC000095550928   -0.1200
25     C25     0.9703   -2.4272    0.1839 C.ar     1 ZINC000095550928    0.0000
26     C26     0.1549   -2.0127    1.2218 C.ar     1 ZINC000095550928   -0.6800
27     S27     0.2702   -2.7973    2.7953 S.o2     1 ZINC000095550928    2.5000
28     C28     0.8717   -1.4960    3.9068 C.3      1 ZINC000095550928   -0.6500
29     O29    -1.0707   -3.1440    3.1131 O.2      1 ZINC000095550928   -0.9200
30     O30     1.2629   -3.7981    2.6159 O.2      1 ZINC000095550928   -0.9300
31     C31    -0.7475   -0.9788    1.0308 C.ar     1 ZINC000095550928    0.1900
32     F32    -1.5408   -0.5792    2.0487 F        1 ZINC000095550928   -0.1100
33     H33    -1.3298    1.7133   -0.2732 H        1 ZINC000095550928    0.0900
34     H34    -2.2349    0.7010   -1.4240 H        1 ZINC000095550928    0.0800
35     H35    -2.6449    0.6639    0.3077 H        1 ZINC000095550928    0.0800
36     H36     0.2384   -2.8361   -4.1405 H        1 ZINC000095550928    0.0900
37     H37    -0.4477   -2.5955   -2.5206 H        1 ZINC000095550928    0.1000
38     H38    -2.0483   -3.7599   -3.9690 H        1 ZINC000095550928    0.1100
39     H39    -2.6623   -2.1501   -3.5323 H        1 ZINC000095550928    0.0600
40     H40    -4.3371   -1.7816   -6.5407 H        1 ZINC000095550928    0.1300
41     H41    -5.1848    0.4861   -6.9618 H        1 ZINC000095550928    0.1300
42     H42    -5.8499    2.1742   -7.2315 H        1 ZINC000095550928    0.1400
43     H43    -6.6484    4.4946   -7.5934 H        1 ZINC000095550928    0.1300
44     H44    -6.1497    6.8421   -7.4244 H        1 ZINC000095550928    0.4100
45     H45    -4.6873    7.4234   -6.8359 H        1 ZINC000095550928    0.4100
46     H46    -2.1709    3.8051   -5.7465 H        1 ZINC000095550928    0.1600
47     H47    -1.5263    2.1314   -5.4510 H        1 ZINC000095550928    0.1300
48     H48     0.2632    0.7335   -4.9261 H        1 ZINC000095550928    0.1000
49     H49     0.2714   -0.8693   -5.7060 H        1 ZINC000095550928    0.1000
50     H50     1.5224   -2.1432   -1.8596 H        1 ZINC000095550928    0.1500
51     H51     1.6750   -3.2305    0.3405 H        1 ZINC000095550928    0.1700
52     H52     0.1619   -0.6689    3.9156 H        1 ZINC000095550928    0.1300
53     H53     0.9739   -1.8978    4.9149 H        1 ZINC000095550928    0.1400
54     H54     1.8409   -1.1394    3.5579 H        1 ZINC000095550928    0.1400
@<TRIPOS>BOND
1     1     2     1
2     1     33    1
3     1     34    1
4     1     35    1
5     2     31    ar
6     2     3     ar
7     3     4     1
8     3     24    ar
9     4     5     2
10    4     6     am
11    6     23    1
12    6     7     1
13    7     8     1
14    7     36    1
15    7     37    1
16    8     9     1
17    8     38    1
18    8     39    1
19    9     10    1
20    10    22    ar
21    10    11    ar
22    11    12    ar
23    11    40    1
24    12    13    ar
25    12    41    1
26    13    14    1
27    13    21    ar
28    14    20    ar
29    14    15    ar
30    15    16    ar
31    15    42    1
32    16    17    ar
33    16    43    1
34    17    18    1
35    17    19    ar
36    18    44    1
37    18    45    1
38    19    20    ar
39    20    46    1
40    21    22    ar
41    21    47    1
42    22    23    1
43    23    48    1
44    23    49    1
45    24    25    ar
46    24    50    1
47    25    26    ar
48    25    51    1
49    26    27    1
50    26    31    ar
51    27    28    1
52    27    29    2
53    27    30    2
54    28    52    1
55    28    53    1
56    28    54    1
57    31    32    1
@<TRIPOS>SUBSTRUCTURE
1   ZINC000095550928 1     RESIDUE    1   A     ZIN   1


@<TRIPOS>MOLECULE
C1CN(CCN1)C2=C(C=C(C=C2)NC3=C4C=C(C=CC4=NC=C3C(=O)N)C5=CC6=CC=CC=C6N=C5)C(F)(F)F
65    70    1     0     0
SMALL
USER_CHARGES
@<TRIPOS>ATOM
1      N1     -1.8827   -0.5601   -3.2760 N.am     1 ZINC000653757103   -0.8500
2      C2     -1.2465   -1.2290   -2.2940 C.2      1 ZINC000653757103    0.5700
3      O3     -0.1400   -1.6934   -2.4925 O.2      1 ZINC000653757103   -0.5200
4      C4     -1.8907   -1.3974   -0.9811 C.ar     1 ZINC000653757103   -0.2100
5      C5     -3.1132   -0.7657   -0.7041 C.ar     1 ZINC000653757103    0.1700
6      N6     -3.7080   -0.8979    0.4538 N.ar     1 ZINC000653757103   -0.4700
7      C7     -3.1878   -1.6412    1.4406 C.ar     1 ZINC000653757103    0.1500
8      C8     -3.8549   -1.7611    2.6718 C.ar     1 ZINC000653757103   -0.0900
9      C9     -3.3202   -2.5169    3.6672 C.ar     1 ZINC000653757103   -0.0800
10     C10    -2.1012   -3.1873    3.4872 C.ar     1 ZINC000653757103   -0.0300
11     C11    -1.5392   -4.0051    4.5894 C.ar     1 ZINC000653757103   -0.1100
12     C12    -0.2692   -4.5894    4.4598 C.ar     1 ZINC000653757103    0.1500
13     N13     0.2517   -5.3158    5.4159 N.ar     1 ZINC000653757103   -0.4700
14     C14    -0.3989   -5.5377    6.5630 C.ar     1 ZINC000653757103    0.1300
15     C15     0.1773   -6.3199    7.5791 C.ar     1 ZINC000653757103   -0.0900
16     C16    -0.5036   -6.5311    8.7384 C.ar     1 ZINC000653757103   -0.1000
17     C17    -1.7694   -5.9841    8.9395 C.ar     1 ZINC000653757103   -0.1100
18     C18    -2.3606   -5.2212    7.9795 C.ar     1 ZINC000653757103   -0.1000
19     C19    -1.6866   -4.9817    6.7699 C.ar     1 ZINC000653757103   -0.1000
20     C20    -2.2622   -4.1936    5.7585 C.ar     1 ZINC000653757103   -0.0400
21     C21    -1.4202   -3.0898    2.2854 C.ar     1 ZINC000653757103   -0.0700
22     C22    -1.9574   -2.3151    1.2509 C.ar     1 ZINC000653757103   -0.1100
23     C23    -1.2922   -2.1960    0.0057 C.ar     1 ZINC000653757103    0.2800
24     N24    -0.0962   -2.8379   -0.2267 N.pl3    1 ZINC000653757103   -0.6900
25     C25    -0.0889   -4.1400   -0.7406 C.ar     1 ZINC000653757103    0.2200
26     C26    -1.2798   -4.7400   -1.1285 C.ar     1 ZINC000653757103   -0.1400
27     C27    -1.2726   -6.0243   -1.6354 C.ar     1 ZINC000653757103   -0.1000
28     C28    -0.0747   -6.7162   -1.7569 C.ar     1 ZINC000653757103    0.0900
29     N29    -0.0675   -8.0178   -2.2701 N.3      1 ZINC000653757103   -0.5000
30     C30    -0.8130   -8.9331   -1.3949 C.3      1 ZINC000653757103    0.0600
31     C31    -0.7145  -10.3569   -1.9478 C.3      1 ZINC000653757103    0.0600
32     N32    -1.2511  -10.3866   -3.3156 N.3      1 ZINC000653757103   -0.6900
33     C33    -0.5056   -9.4713   -4.1908 C.3      1 ZINC000653757103    0.0600
34     C34    -0.6041   -8.0476   -3.6379 C.3      1 ZINC000653757103    0.0600
35     C35     1.1165   -6.1159   -1.3693 C.ar     1 ZINC000653757103   -0.1100
36     C36     2.4166   -6.8663   -1.5021 C.3      1 ZINC000653757103    0.5200
37     F37     3.4680   -6.0611   -1.0511 F        1 ZINC000653757103   -0.1800
38     F38     2.3613   -8.0344   -0.7341 F        1 ZINC000653757103   -0.1700
39     F39     2.6274   -7.2001   -2.8442 F        1 ZINC000653757103   -0.1700
40     C40     1.1101   -4.8298   -0.8679 C.ar     1 ZINC000653757103   -0.1300
41     H41    -1.4582   -0.4491   -4.1411 H        1 ZINC000653757103    0.4100
42     H42    -2.7668   -0.1932   -3.1189 H        1 ZINC000653757103    0.4000
43     H43    -3.5744   -0.1548   -1.4660 H        1 ZINC000653757103    0.1700
44     H44    -4.7943   -1.2514    2.8276 H        1 ZINC000653757103    0.1500
45     H45    -3.8409   -2.6021    4.6096 H        1 ZINC000653757103    0.1400
46     H46     0.2912   -4.4362    3.5493 H        1 ZINC000653757103    0.1600
47     H47     1.1572   -6.7521    7.4400 H        1 ZINC000653757103    0.1400
48     H48    -0.0556   -7.1329    9.5153 H        1 ZINC000653757103    0.1300
49     H49    -2.2881   -6.1680    9.8688 H        1 ZINC000653757103    0.1300
50     H50    -3.3421   -4.8027    8.1464 H        1 ZINC000653757103    0.1300
51     H51    -3.2392   -3.7514    5.8859 H        1 ZINC000653757103    0.1400
52     H52    -0.4821   -3.6069    2.1476 H        1 ZINC000653757103    0.1400
53     H53     0.7412   -2.3878   -0.0342 H        1 ZINC000653757103    0.4200
54     H54    -2.2115   -4.2022   -1.0334 H        1 ZINC000653757103    0.1200
55     H55    -2.1987   -6.4910   -1.9371 H        1 ZINC000653757103    0.1300
56     H56    -0.3890   -8.9027   -0.3912 H        1 ZINC000653757103    0.0800
57     H57    -1.8591   -8.6291   -1.3575 H        1 ZINC000653757103    0.0500
58     H58     0.3292  -10.6709   -1.9598 H        1 ZINC000653757103    0.0400
59     H59    -1.2908  -11.0330   -1.3163 H        1 ZINC000653757103    0.0800
60     H60    -1.2460  -11.3253   -3.6857 H        1 ZINC000653757103    0.3500
61     H61     0.5405   -9.7753   -4.2282 H        1 ZINC000653757103    0.0400
62     H62    -0.9296   -9.5018   -5.1945 H        1 ZINC000653757103    0.0800
63     H63    -1.6478   -7.7336   -3.6259 H        1 ZINC000653757103    0.0500
64     H64    -0.0278   -7.3715   -4.2694 H        1 ZINC000653757103    0.0800
65     H65     2.0362   -4.3630   -0.5665 H        1 ZINC000653757103    0.1400
@<TRIPOS>BOND
1     1     2     am
2     1     41    1
3     1     42    1
4     2     3     2
5     2     4     1
6     4     23    ar
7     4     5     ar
8     5     6     ar
9     5     43    1
10    6     7     ar
11    7     22    ar
12    7     8     ar
13    8     9     ar
14    8     44    1
15    9     10    ar
16    9     45    1
17    10    11    1
18    10    21    ar
19    11    20    ar
20    11    12    ar
21    12    13    ar
22    12    46    1
23    13    14    ar
24    14    19    ar
25    14    15    ar
26    15    16    ar
27    15    47    1
28    16    17    ar
29    16    48    1
30    17    18    ar
31    17    49    1
32    18    19    ar
33    18    50    1
34    19    20    ar
35    20    51    1
36    21    22    ar
37    21    52    1
38    22    23    ar
39    23    24    1
40    24    25    1
41    24    53    1
42    25    40    ar
43    25    26    ar
44    26    27    ar
45    26    54    1
46    27    28    ar
47    27    55    1
48    28    29    1
49    28    35    ar
50    29    34    1
51    29    30    1
52    30    31    1
53    30    56    1
54    30    57    1
55    31    32    1
56    31    58    1
57    31    59    1
58    32    33    1
59    32    60    1
60    33    34    1
61    33    61    1
62    33    62    1
63    34    63    1
64    34    64    1
65    35    36    1
66    35    40    ar
67    36    37    1
68    36    38    1
69    36    39    1
70    40    65    1
@<TRIPOS>SUBSTRUCTURE
1   ZINC000653757103 1     RESIDUE    1   A     ZIN   1


@<TRIPOS>MOLECULE
COC1=C(C=C(C=N1)C2=CC3=C(C=CN=C3C=C2)C#CCN4CCN(CC4)S(=O)(=O)C)NS(=O)(=O)C5=C(C=C(C=C5)F)F
69    73    1     0     0
SMALL
USER_CHARGES
@<TRIPOS>ATOM
1      C1     -0.0173    1.4248    0.0099 C.3      1 ZINC000653691199    0.0600
2      O2      0.0021   -0.0041    0.0020 O.3      1 ZINC000653691199   -0.3200
3      C3     -1.1989   -0.6368    0.0101 C.ar     1 ZINC000653691199    0.2000
4      N4     -2.3117    0.0757    0.0190 N.ar     1 ZINC000653691199   -0.5000
5      C5     -3.5019   -0.4924    0.0267 C.ar     1 ZINC000653691199    0.0400
6      C6     -3.6302   -1.8782    0.0260 C.ar     1 ZINC000653691199   -0.1000
7      C7     -4.9726   -2.5088    0.0346 C.ar     1 ZINC000653691199    0.0100
8      C8     -5.0864   -3.9075    0.0397 C.ar     1 ZINC000653691199   -0.0900
9      C9     -6.3042   -4.5097    0.0472 C.ar     1 ZINC000653691199   -0.0900
10     C10    -7.4753   -3.7303    0.0505 C.ar     1 ZINC000653691199    0.1200
11     N11    -8.6827   -4.3031    0.0583 N.ar     1 ZINC000653691199   -0.4700
12     C12    -9.7917   -3.6057    0.0619 C.ar     1 ZINC000653691199    0.1200
13     C13    -9.8027   -2.2173    0.0580 C.ar     1 ZINC000653691199   -0.1500
14     C14    -8.5958   -1.5225    0.0498 C.ar     1 ZINC000653691199    0.0700
15     C15    -8.5588   -0.0910    0.0460 C.1      1 ZINC000653691199   -0.1300
16     C16    -8.5285    1.0826    0.0428 C.1      1 ZINC000653691199   -0.1300
17     C17    -8.4905    2.5541    0.0389 C.3      1 ZINC000653691199    0.1700
18     N18    -7.0933    3.0078    0.0303 N.3      1 ZINC000653691199   -0.5300
19     C19    -6.2916    2.2619    1.0095 C.3      1 ZINC000653691199    0.0400
20     C20    -4.8142    2.6337    0.8444 C.3      1 ZINC000653691199    0.1200
21     N21    -4.6890    4.0970    0.9237 N.am     1 ZINC000653691199   -1.0000
22     S22    -3.5955    4.8024    1.9479 S.o2     1 ZINC000653691199    2.6100
23     C23    -2.0840    4.9602    0.9573 C.3      1 ZINC000653691199   -0.6700
24     O24    -4.1477    6.0825    2.2225 O.2      1 ZINC000653691199   -0.9600
25     O25    -3.4160    3.8447    2.9823 O.2      1 ZINC000653691199   -0.9500
26     C26    -5.5605    4.9173    0.0687 C.3      1 ZINC000653691199    0.1200
27     C27    -7.0085    4.4556    0.2644 C.3      1 ZINC000653691199    0.0400
28     C28    -7.3664   -2.3175    0.0459 C.ar     1 ZINC000653691199   -0.0700
29     C29    -6.1067   -1.7139    0.0434 C.ar     1 ZINC000653691199   -0.1100
30     C30    -2.4755   -2.6686    0.0167 C.ar     1 ZINC000653691199   -0.1200
31     C31    -1.2432   -2.0326    0.0030 C.ar     1 ZINC000653691199    0.2400
32     N32    -0.0595   -2.7797   -0.0068 N.pl3    1 ZINC000653691199   -1.0900
33     S33     1.4061   -2.0088   -0.0230 S.o2     1 ZINC000653691199    2.6300
34     O34     1.4955   -1.3432   -1.2753 O.2      1 ZINC000653691199   -1.0100
35     O35     1.5200   -1.3371    1.2240 O.2      1 ZINC000653691199   -1.0000
36     C36     2.6511   -3.2556   -0.0322 C.ar     1 ZINC000653691199   -0.6800
37     C37     3.4901   -3.3858   -1.1224 C.ar     1 ZINC000653691199    0.0200
38     C38     4.4676   -4.3631   -1.1308 C.ar     1 ZINC000653691199   -0.1900
39     C39     4.6071   -5.2128   -0.0466 C.ar     1 ZINC000653691199    0.1600
40     F40     5.5628   -6.1676   -0.0548 F        1 ZINC000653691199   -0.1300
41     C41     3.7671   -5.0832    1.0462 C.ar     1 ZINC000653691199   -0.2200
42     C42     2.7922   -4.1009    1.0557 C.ar     1 ZINC000653691199    0.2300
43     F43     1.9718   -3.9734    2.1215 F        1 ZINC000653691199   -0.1100
44     H44     1.0053    1.8021    0.0021 H        1 ZINC000653691199    0.0800
45     H45    -0.5445    1.7859   -0.8732 H        1 ZINC000653691199    0.0500
46     H46    -0.5275    1.7763    0.9067 H        1 ZINC000653691199    0.0500
47     H47    -4.3878    0.1253    0.0339 H        1 ZINC000653691199    0.1400
48     H48    -4.1928   -4.5141    0.0372 H        1 ZINC000653691199    0.1400
49     H49    -6.3733   -5.5875    0.0502 H        1 ZINC000653691199    0.1400
50     H50   -10.7350   -4.1317    0.0679 H        1 ZINC000653691199    0.1600
51     H51   -10.7398   -1.6804    0.0609 H        1 ZINC000653691199    0.1400
52     H52    -8.9994    2.9283   -0.8494 H        1 ZINC000653691199    0.1100
53     H53    -8.9900    2.9328    0.9306 H        1 ZINC000653691199    0.0600
54     H54    -6.6201    2.5156    2.0174 H        1 ZINC000653691199    0.0400
55     H55    -6.4181    1.1920    0.8438 H        1 ZINC000653691199    0.0900
56     H56    -4.2294    2.1726    1.6404 H        1 ZINC000653691199    0.1000
57     H57    -4.4556    2.2875   -0.1249 H        1 ZINC000653691199    0.0800
58     H58    -2.2846    5.5824    0.0851 H        1 ZINC000653691199    0.1300
59     H59    -1.3012    5.4208    1.5599 H        1 ZINC000653691199    0.1300
60     H60    -1.7582    3.9723    0.6318 H        1 ZINC000653691199    0.1300
61     H61    -5.4692    5.9659    0.3518 H        1 ZINC000653691199    0.1000
62     H62    -5.2736    4.7906   -0.9752 H        1 ZINC000653691199    0.0800
63     H63    -7.6550    4.9766   -0.4418 H        1 ZINC000653691199    0.0900
64     H64    -7.3270    4.6787    1.2826 H        1 ZINC000653691199    0.0400
65     H65    -6.0180   -0.6375    0.0440 H        1 ZINC000653691199    0.1300
66     H66    -2.5423   -3.7465    0.0163 H        1 ZINC000653691199    0.1300
67     H67     3.3818   -2.7237   -1.9688 H        1 ZINC000653691199    0.1600
68     H68     5.1226   -4.4643   -1.9836 H        1 ZINC000653691199    0.1500
69     H69     3.8752   -5.7456    1.8924 H        1 ZINC000653691199    0.1500
@<TRIPOS>BOND
1     1     2     1
2     1     44    1
3     1     45    1
4     1     46    1
5     2     3     1
6     3     31    ar
7     3     4     ar
8     4     5     ar
9     5     6     ar
10    5     47    1
11    6     7     1
12    6     30    ar
13    7     29    ar
14    7     8     ar
15    8     9     ar
16    8     48    1
17    9     10    ar
18    9     49    1
19    10    28    ar
20    10    11    ar
21    11    12    ar
22    12    13    ar
23    12    50    1
24    13    14    ar
25    13    51    1
26    14    15    1
27    14    28    ar
28    15    16    3
29    16    17    1
30    17    18    1
31    17    52    1
32    17    53    1
33    18    27    1
34    18    19    1
35    19    20    1
36    19    54    1
37    19    55    1
38    20    21    1
39    20    56    1
40    20    57    1
41    21    22    am
42    21    26    1
43    22    23    1
44    22    24    2
45    22    25    2
46    23    58    1
47    23    59    1
48    23    60    1
49    26    27    1
50    26    61    1
51    26    62    1
52    27    63    1
53    27    64    1
54    28    29    ar
55    29    65    1
56    30    31    ar
57    30    66    1
58    31    32    1
59    32    33    1
60    33    34    2
61    33    35    2
62    33    36    1
63    36    42    ar
64    36    37    ar
65    37    38    ar
66    37    67    1
67    38    39    ar
68    38    68    1
69    39    40    1
70    39    41    ar
71    41    42    ar
72    41    69    1
73    42    43    1
@<TRIPOS>SUBSTRUCTURE
1   ZINC000653691199 1     RESIDUE    1   A     ZIN   1


@<TRIPOS>MOLECULE
CCN(CC)CCCC(C)NC1=C2C=CC(=CC2=NC=C1)Cl
  49   50    0    0    0
SMALL
USER_CHARGES
NO_NAME
@<TRIPOS>ATOM
    1 C1        0.0823     1.4510    -0.2163 C.3    1 <0>      -0.1900
    2 C2        0.0237    -0.0664    -0.0289 C.3    1 <0>      -0.0200
    3 N3       -1.3740    -0.4850     0.1418 N.4    1 <0>      -0.3900
    4 H4       -1.7925     0.0392     0.8955 H      1 <0>       0.4200
    5 C5       -2.1159    -0.2330    -1.1009 C.3    1 <0>      -0.0200
    6 C6       -3.5996    -0.5332    -0.8788 C.3    1 <0>      -0.1900
    7 C7       -1.4206    -1.9189     0.4577 C.3    1 <0>      -0.0100
    8 C8       -0.7562    -2.1642     1.8139 C.3    1 <0>      -0.1500
    9 C9       -0.8047    -3.6576     2.1429 C.3    1 <0>      -0.1200
   10 C10      -0.1402    -3.9029     3.4991 C.3    1 <0>       0.1500
   11 H11      -0.6138    -3.2758     4.2544 H      1 <0>       0.0900
   12 C12      -0.2985    -5.3747     3.8858 C.3    1 <0>      -0.1800
   13 N13       1.2841    -3.5713     3.4121 N.pl3  1 <0>      -0.7300
   14 C14       1.9824    -3.2088     4.5537 C.ar   1 <0>       0.2700
   15 C15       3.3571    -2.8784     4.4943 C.ar   1 <0>      -0.1500
   16 C16       4.0620    -2.9050     3.2828 C.ar   1 <0>      -0.0800
   17 C17       5.3847    -2.5801     3.2656 C.ar   1 <0>      -0.1200
   18 C18       6.0470    -2.2214     4.4386 C.ar   1 <0>      -0.0100
   19 Cl19      7.7333    -1.8137     4.3776 Cl     1 <0>      -0.0500
   20 C20       5.3909    -2.1856     5.6322 C.ar   1 <0>      -0.0900
   21 C21       4.0257    -2.5142     5.6876 C.ar   1 <0>       0.1800
   22 N22       3.3573    -2.4867     6.8462 N.ar   1 <0>      -0.5100
   23 C23       2.0818    -2.7908     6.9136 C.ar   1 <0>       0.1800
   24 C24       1.3546    -3.1530     5.7885 C.ar   1 <0>      -0.2700
   25 H25       1.1228     1.7753    -0.2311 H      1 <0>       0.1100
   26 H26      -0.3953     1.7194    -1.1586 H      1 <0>       0.0800
   27 H27      -0.4388     1.9392     0.6072 H      1 <0>       0.0800
   28 H28       0.4455    -0.5574    -0.9059 H      1 <0>       0.1300
   29 H29       0.5971    -0.3457     0.8550 H      1 <0>       0.1300
   30 H30      -1.9958     0.8109    -1.3904 H      1 <0>       0.1300
   31 H31      -1.7294    -0.8761    -1.8915 H      1 <0>       0.1300
   32 H32      -3.7314    -1.6000    -0.6980 H      1 <0>       0.0800
   33 H33      -3.9590     0.0285    -0.0166 H      1 <0>       0.0800
   34 H34      -4.1656    -0.2421    -1.7637 H      1 <0>       0.1100
   35 H35      -2.4588    -2.2488     0.4968 H      1 <0>       0.1300
   36 H36      -0.8905    -2.4782    -0.3132 H      1 <0>       0.1300
   37 H37       0.2820    -1.8343     1.7748 H      1 <0>       0.0900
   38 H38      -1.2864    -1.6049     2.5847 H      1 <0>       0.0900
   39 H39      -1.8429    -3.9875     2.1820 H      1 <0>       0.0900
   40 H40      -0.2745    -4.2169     1.3721 H      1 <0>       0.0800
   41 H41       0.1749    -5.5495     4.8519 H      1 <0>       0.0700
   42 H42      -1.3582    -5.6215     3.9505 H      1 <0>       0.0700
   43 H43       0.1751    -6.0018     3.1304 H      1 <0>       0.0600
   44 H44       1.7386    -3.6053     2.5559 H      1 <0>       0.4000
   45 H45       3.5591    -3.1821     2.3681 H      1 <0>       0.1300
   46 H46       5.9270    -2.6009     2.3318 H      1 <0>       0.1400
   47 H47       5.9182    -1.9061     6.5323 H      1 <0>       0.1500
   48 H48       1.5836    -2.7546     7.8712 H      1 <0>       0.1600
   49 H49       0.3063    -3.3974     5.8756 H      1 <0>       0.1400
@<TRIPOS>BOND
   1    1    2 1
   2    1   25 1
   3    1   26 1
   4    1   27 1
   5    2    3 1
   6    2   28 1
   7    2   29 1
   8    3    4 1
   9    3    5 1
  10    3    7 1
  11    5    6 1
  12    5   30 1
  13    5   31 1
  14    6   32 1
  15    6   33 1
  16    6   34 1
  17    7    8 1
  18    7   35 1
  19    7   36 1
  20    8    9 1
  21    8   37 1
  22    8   38 1
  23    9   10 1
  24    9   39 1
  25    9   40 1
  26   10   11 1
  27   10   12 1
  28   10   13 1
  29   12   41 1
  30   12   42 1
  31   12   43 1
  32   13   14 1
  33   13   44 1
  34   14   24 ar
  35   14   15 ar
  36   15   21 ar
  37   15   16 ar
  38   16   17 ar
  39   16   45 1
  40   17   18 ar
  41   17   46 1
  42   18   19 1
  43   18   20 ar
  44   20   21 ar
  45   20   47 1
  46   21   22 ar
  47   22   23 ar
  48   23   24 ar
  49   23   48 1
  50   24   49 1


@<TRIPOS>MOLECULE
CS(=O)(=O)C1=CC(=C(C=C1)C(=O)NC2=CC(=C(C=C2)Cl)C3=CC=CC=N3)Cl
41    43    1     0     0
SMALL
USER_CHARGES
@<TRIPOS>ATOM
1      C1      0.0062    1.8126    0.0286 C.3      1 ZINC000040899447   -0.6500
2      S2      0.0367   -0.0011    0.0166 S.o2     1 ZINC000040899447    2.5000
3      O3      0.8859   -0.4923    1.0447 O.2      1 ZINC000040899447   -0.9300
4      O4     -1.2738   -0.5208   -0.1618 O.2      1 ZINC000040899447   -0.9300
5      C5      0.8760   -0.4169   -1.4758 C.ar     1 ZINC000040899447   -0.6300
6      C6      0.1567   -0.5876   -2.6456 C.ar     1 ZINC000040899447   -0.0300
7      C7      0.8066   -0.9127   -3.8181 C.ar     1 ZINC000040899447   -0.0900
8      C8      2.1937   -1.0697   -3.8236 C.ar     1 ZINC000040899447   -0.0800
9      C9      2.8963   -1.4174   -5.0758 C.2      1 ZINC000040899447    0.5500
10     O10     4.1044   -1.5535   -5.0773 O.2      1 ZINC000040899447   -0.4800
11     N11     2.1981   -1.5837   -6.2165 N.am     1 ZINC000040899447   -0.6700
12     C12     2.8707   -1.8211   -7.4202 C.ar     1 ZINC000040899447    0.1500
13     C13     4.0334   -2.5818   -7.4279 C.ar     1 ZINC000040899447   -0.1000
14     C14     4.7010   -2.8188   -8.6145 C.ar     1 ZINC000040899447   -0.0900
15     C15     4.2158   -2.3010   -9.8000 C.ar     1 ZINC000040899447   -0.0200
16     Cl16    5.0579   -2.6022  -11.2879 Cl       1 ZINC000040899447   -0.0500
17     C17     3.0487   -1.5365   -9.8012 C.ar     1 ZINC000040899447   -0.0200
18     C18     2.5257   -0.9796  -11.0726 C.ar     1 ZINC000040899447    0.1600
19     C19     2.1881    0.3698  -11.1485 C.ar     1 ZINC000040899447   -0.1500
20     C20     1.7018    0.8754  -12.3420 C.ar     1 ZINC000040899447   -0.0700
21     C21     1.5690    0.0136  -13.4212 C.ar     1 ZINC000040899447   -0.1700
22     C22     1.9233   -1.3152  -13.2756 C.ar     1 ZINC000040899447    0.1000
23     N23     2.3885   -1.7695  -12.1299 N.ar     1 ZINC000040899447   -0.4600
24     C24     2.3737   -1.3019   -8.6062 C.ar     1 ZINC000040899447   -0.1100
25     C25     2.9145   -0.8961   -2.6390 C.ar     1 ZINC000040899447   -0.0100
26     Cl26    4.6398   -1.0888   -2.6337 Cl       1 ZINC000040899447   -0.0100
27     C27     2.2511   -0.5655   -1.4737 C.ar     1 ZINC000040899447   -0.0200
28     H28     1.0275    2.1932    0.0164 H        1 ZINC000040899447    0.1400
29     H29    -0.5264    2.1728   -0.8516 H        1 ZINC000040899447    0.1300
30     H30    -0.5010    2.1615    0.9281 H        1 ZINC000040899447    0.1400
31     H31    -0.9164   -0.4662   -2.6405 H        1 ZINC000040899447    0.1600
32     H32     0.2433   -1.0458   -4.7300 H        1 ZINC000040899447    0.1500
33     H33     1.2292   -1.5388   -6.2030 H        1 ZINC000040899447    0.4100
34     H34     4.4167   -2.9887   -6.5039 H        1 ZINC000040899447    0.1500
35     H35     5.6047   -3.4101   -8.6151 H        1 ZINC000040899447    0.1400
36     H36     2.3039    1.0125  -10.2883 H        1 ZINC000040899447    0.1400
37     H37     1.4314    1.9172  -12.4308 H        1 ZINC000040899447    0.1400
38     H38     1.1922    0.3770  -14.3659 H        1 ZINC000040899447    0.1400
39     H39     1.8212   -1.9886  -14.1137 H        1 ZINC000040899447    0.1600
40     H40     1.4696   -0.7111   -8.6019 H        1 ZINC000040899447    0.1400
41     H41     2.8063   -0.4305   -0.5572 H        1 ZINC000040899447    0.1600
@<TRIPOS>BOND
1     1     2     1
2     1     28    1
3     1     29    1
4     1     30    1
5     2     3     2
6     2     4     2
7     2     5     1
8     5     27    ar
9     5     6     ar
10    6     7     ar
11    6     31    1
12    7     8     ar
13    7     32    1
14    8     9     1
15    8     25    ar
16    9     10    2
17    9     11    am
18    11    12    1
19    11    33    1
20    12    24    ar
21    12    13    ar
22    13    14    ar
23    13    34    1
24    14    15    ar
25    14    35    1
26    15    16    1
27    15    17    ar
28    17    18    1
29    17    24    ar
30    18    23    ar
31    18    19    ar
32    19    20    ar
33    19    36    1
34    20    21    ar
35    20    37    1
36    21    22    ar
37    21    38    1
38    22    23    ar
39    22    39    1
40    24    40    1
41    25    26    1
42    25    27    ar
43    27    41    1
@<TRIPOS>SUBSTRUCTURE
1   ZINC000040899447 1     RESIDUE    1   A     ZIN   1


@<TRIPOS>MOLECULE
COC1=CC(=CC(=C1O)OC)C=NNC2=NC(=NC(=N2)N3CCOCC3)N4CCOCC4
59    62    1     0     0
SMALL
USER_CHARGES
@<TRIPOS>ATOM
1      C1     -0.0173    1.4248    0.0099 C.3      1 ZINC000006906035    0.0200
2      O2      0.0021   -0.0041    0.0020 O.3      1 ZINC000006906035   -0.3000
3      C3     -1.2011   -0.6379    0.0101 C.ar     1 ZINC000006906035    0.1400
4      C4     -2.3748    0.1005    0.0195 C.ar     1 ZINC000006906035   -0.2000
5      C5     -3.5982   -0.5428    0.0277 C.ar     1 ZINC000006906035   -0.0200
6      C6     -4.8712    0.2637    0.0379 C.3      1 ZINC000006906035    0.0600
7      N7     -5.2938    0.5266   -1.3400 N.2      1 ZINC000006906035   -0.1300
8      N8     -6.3967    0.1229   -1.7380 N.2      1 ZINC000006906035   -0.1800
9      C9     -6.7936    0.3698   -3.0323 C.ar     1 ZINC000006906035    0.5500
10     N10    -5.9925    1.0364   -3.8576 N.ar     1 ZINC000006906035   -0.5900
11     C11    -6.3764    1.2749   -5.1082 C.ar     1 ZINC000006906035    0.5700
12     N12    -5.5445    1.9665   -5.9654 N.3      1 ZINC000006906035   -0.4500
13     C13    -5.2700    1.1837   -7.1790 C.3      1 ZINC000006906035    0.0300
14     C14    -4.3950    2.0097   -8.1256 C.3      1 ZINC000006906035    0.0600
15     O15    -3.1965    2.3932   -7.4461 O.3      1 ZINC000006906035   -0.3800
16     C16    -3.4269    3.1578   -6.2596 C.3      1 ZINC000006906035    0.0600
17     C17    -4.2920    2.3433   -5.2941 C.3      1 ZINC000006906035    0.0300
18     N18    -7.5605    0.8470   -5.5330 N.ar     1 ZINC000006906035   -0.5700
19     C19    -8.3615    0.1807   -4.7082 C.ar     1 ZINC000006906035    0.5700
20     N20    -9.5912   -0.2640   -5.1498 N.3      1 ZINC000006906035   -0.4500
21     C21   -10.3981    0.8492   -5.6705 C.3      1 ZINC000006906035    0.0300
22     C22   -11.7261    0.3045   -6.2030 C.3      1 ZINC000006906035    0.0600
23     O23   -12.3960   -0.4081   -5.1595 O.3      1 ZINC000006906035   -0.3800
24     C24   -11.6388   -1.4996   -4.6297 C.3      1 ZINC000006906035    0.0600
25     C25   -10.3099   -0.9731   -4.0812 C.3      1 ZINC000006906035    0.0300
26     N26    -7.9759   -0.0629   -3.4591 N.ar     1 ZINC000006906035   -0.5600
27     C27    -3.6572   -1.9238    0.0261 C.ar     1 ZINC000006906035   -0.2200
28     C28    -2.4882   -2.6696    0.0168 C.ar     1 ZINC000006906035    0.1400
29     O29    -2.5472   -4.0282    0.0153 O.3      1 ZINC000006906035   -0.3000
30     C30    -3.8474   -4.6211    0.0237 C.3      1 ZINC000006906035    0.0200
31     C31    -1.2561   -2.0266    0.0032 C.ar     1 ZINC000006906035    0.0500
32     O32    -0.1065   -2.7549   -0.0060 O.3      1 ZINC000006906035   -0.4700
33     H33     1.0053    1.8021    0.0021 H        1 ZINC000006906035    0.1000
34     H34    -0.5445    1.7859   -0.8732 H        1 ZINC000006906035    0.0600
35     H35    -0.5275    1.7763    0.9067 H        1 ZINC000006906035    0.0600
36     H36    -2.3329    1.1797    0.0207 H        1 ZINC000006906035    0.1400
37     H37    -5.6507   -0.2943    0.5568 H        1 ZINC000006906035    0.0900
38     H38    -4.6981    1.2094    0.5515 H        1 ZINC000006906035    0.1300
39     H39    -4.7483    0.2653   -6.9096 H        1 ZINC000006906035    0.0600
40     H40    -6.2096    0.9375   -7.6737 H        1 ZINC000006906035    0.1100
41     H41    -4.1416    1.4123   -9.0014 H        1 ZINC000006906035    0.1100
42     H42    -4.9380    2.9019   -8.4375 H        1 ZINC000006906035    0.0700
43     H43    -2.4733    3.3907   -5.7858 H        1 ZINC000006906035    0.1100
44     H44    -3.9417    4.0834   -6.5172 H        1 ZINC000006906035    0.0600
45     H45    -4.5177    2.9437   -4.4128 H        1 ZINC000006906035    0.1000
46     H46    -3.7547    1.4436   -4.9945 H        1 ZINC000006906035    0.0700
47     H47   -10.5923    1.5634   -4.8702 H        1 ZINC000006906035    0.0600
48     H48    -9.8579    1.3440   -6.4776 H        1 ZINC000006906035    0.1100
49     H49   -12.3511    1.1324   -6.5377 H        1 ZINC000006906035    0.1100
50     H50   -11.5345   -0.3687   -7.0386 H        1 ZINC000006906035    0.0700
51     H51   -12.2007   -1.9764   -3.8265 H        1 ZINC000006906035    0.1100
52     H52   -11.4447   -2.2252   -5.4195 H        1 ZINC000006906035    0.0600
53     H53    -9.7053   -1.8085   -3.7282 H        1 ZINC000006906035    0.1000
54     H54   -10.5028   -0.2881   -3.2556 H        1 ZINC000006906035    0.0700
55     H55    -4.6151   -2.4227    0.0325 H        1 ZINC000006906035    0.1400
56     H56    -3.7517   -5.7069    0.0215 H        1 ZINC000006906035    0.1100
57     H57    -4.3849   -4.3056    0.9179 H        1 ZINC000006906035    0.0600
58     H58    -4.3975   -4.3031   -0.8620 H        1 ZINC000006906035    0.0600
59     H59     0.2172   -2.9677   -0.8921 H        1 ZINC000006906035    0.3800
@<TRIPOS>BOND
1     1     2     1
2     1     33    1
3     1     34    1
4     1     35    1
5     2     3     1
6     3     31    ar
7     3     4     ar
8     4     5     ar
9     4     36    1
10    5     6     1
11    5     27    ar
12    6     7     1
13    6     37    1
14    6     38    1
15    7     8     2
16    8     9     1
17    9     26    ar
18    9     10    ar
19    10    11    ar
20    11    12    1
21    11    18    ar
22    12    17    1
23    12    13    1
24    13    14    1
25    13    39    1
26    13    40    1
27    14    15    1
28    14    41    1
29    14    42    1
30    15    16    1
31    16    17    1
32    16    43    1
33    16    44    1
34    17    45    1
35    17    46    1
36    18    19    ar
37    19    20    1
38    19    26    ar
39    20    25    1
40    20    21    1
41    21    22    1
42    21    47    1
43    21    48    1
44    22    23    1
45    22    49    1
46    22    50    1
47    23    24    1
48    24    25    1
49    24    51    1
50    24    52    1
51    25    53    1
52    25    54    1
53    27    28    ar
54    27    55    1
55    28    29    1
56    28    31    ar
57    29    30    1
58    30    56    1
59    30    57    1
60    30    58    1
61    31    32    1
62    32    59    1
@<TRIPOS>SUBSTRUCTURE
1   ZINC000006906035 1     RESIDUE    1   A     ZIN   1


@<TRIPOS>MOLECULE
COC1=CC(=CC(=C1O)OC)C2=CN(C=N2)C3=NC(=NC(=N3)N4CCOCC4)N5CCOCC5
61    65    1     0     0
SMALL
USER_CHARGES
@<TRIPOS>ATOM
1      C1     -0.0173    1.4248    0.0099 C.3      1 ZINC000045253245    0.0200
2      O2      0.0021   -0.0041    0.0020 O.3      1 ZINC000045253245   -0.3000
3      C3     -1.2011   -0.6379    0.0101 C.ar     1 ZINC000045253245    0.1400
4      C4     -2.3722    0.1006    0.0195 C.ar     1 ZINC000045253245   -0.2000
5      C5     -3.6048   -0.5491    0.0278 C.ar     1 ZINC000045253245    0.0600
6      C6     -4.8607    0.2409    0.0374 C.2      1 ZINC000045253245    0.0500
7      C7     -6.1210   -0.2632    0.0515 C.2      1 ZINC000045253245    0.0000
8      N8     -6.9745    0.8106    0.0567 N.pl3    1 ZINC000045253245   -0.4000
9      C9     -8.3655    0.7601    0.0714 C.ar     1 ZINC000045253245    0.6300
10     N10    -8.9865   -0.4130    0.0875 N.ar     1 ZINC000045253245   -0.6200
11     C11   -10.3153   -0.4622    0.1019 C.ar     1 ZINC000045253245    0.5900
12     N12   -10.9607   -1.6820    0.1191 N.3      1 ZINC000045253245   -0.4500
13     C13   -11.8669   -1.7824    1.2723 C.3      1 ZINC000045253245    0.0300
14     C14   -12.6046   -3.1229    1.2197 C.3      1 ZINC000045253245    0.0600
15     O15   -11.6489   -4.1863    1.1879 O.3      1 ZINC000045253245   -0.3800
16     C16   -10.7505   -4.1200    0.0771 C.3      1 ZINC000045253245    0.0600
17     C17    -9.9940   -2.7896    0.1182 C.3      1 ZINC000045253245    0.0300
18     N18   -11.0217    0.6636    0.1003 N.ar     1 ZINC000045253245   -0.5800
19     C19   -10.3990    1.8377    0.0842 C.ar     1 ZINC000045253245    0.5900
20     N20   -11.1314    3.0075    0.0826 N.3      1 ZINC000045253245   -0.4500
21     C21   -12.0674    3.0414   -1.0506 C.3      1 ZINC000045253245    0.0300
22     C22   -12.8990    4.3249   -0.9804 C.3      1 ZINC000045253245    0.0600
23     O23   -12.0224    5.4549   -0.9682 O.3      1 ZINC000045253245   -0.3800
24     C24   -11.0976    5.4543    0.1228 C.3      1 ZINC000045253245    0.0600
25     C25   -10.2478    4.1823    0.0637 C.3      1 ZINC000045253245    0.0300
26     N26    -9.0700    1.8850    0.0749 N.ar     1 ZINC000045253245   -0.6200
27     C27    -6.2071    1.9348    0.0457 C.2      1 ZINC000045253245    0.2400
28     N28    -4.9516    1.5870    0.0397 N.2      1 ZINC000045253245   -0.4600
29     C29    -3.6567   -1.9416    0.0266 C.ar     1 ZINC000045253245   -0.2200
30     C30    -2.4839   -2.6774    0.0171 C.ar     1 ZINC000045253245    0.1400
31     O31    -2.5342   -4.0364    0.0159 O.3      1 ZINC000045253245   -0.3000
32     C32    -3.8306   -4.6376    0.0248 C.3      1 ZINC000045253245    0.0200
33     C33    -1.2547   -2.0274    0.0032 C.ar     1 ZINC000045253245    0.0400
34     O34    -0.1027   -2.7520   -0.0061 O.3      1 ZINC000045253245   -0.4700
35     H35     1.0053    1.8021    0.0021 H        1 ZINC000045253245    0.1000
36     H36    -0.5445    1.7859   -0.8732 H        1 ZINC000045253245    0.0600
37     H37    -0.5275    1.7763    0.9067 H        1 ZINC000045253245    0.0600
38     H38    -2.3303    1.1798    0.0208 H        1 ZINC000045253245    0.1500
39     H39    -6.3979   -1.3071    0.0571 H        1 ZINC000045253245    0.1900
40     H40   -11.2900   -1.7204    2.1950 H        1 ZINC000045253245    0.0600
41     H41   -12.5901   -0.9674    1.2390 H        1 ZINC000045253245    0.1100
42     H42   -13.2350   -3.2263    2.1028 H        1 ZINC000045253245    0.1100
43     H43   -13.2234   -3.1628    0.3233 H        1 ZINC000045253245    0.0700
44     H44   -10.0399   -4.9446    0.1340 H        1 ZINC000045253245    0.1100
45     H45   -11.3154   -4.1889   -0.8525 H        1 ZINC000045253245    0.0700
46     H46    -9.3500   -2.7099   -0.7576 H        1 ZINC000045253245    0.1000
47     H47    -9.3872   -2.7437    1.0225 H        1 ZINC000045253245    0.0700
48     H48   -11.5077    3.0211   -1.9857 H        1 ZINC000045253245    0.0600
49     H49   -12.7286    2.1762   -1.0026 H        1 ZINC000045253245    0.1100
50     H50   -13.5543    4.3820   -1.8495 H        1 ZINC000045253245    0.1100
51     H51   -13.4995    4.3202   -0.0707 H        1 ZINC000045253245    0.0700
52     H52   -10.4502    6.3283    0.0515 H        1 ZINC000045253245    0.1100
53     H53   -11.6457    5.4825    1.0645 H        1 ZINC000045253245    0.0700
54     H54    -9.5808    4.1499    0.9252 H        1 ZINC000045253245    0.1000
55     H55    -9.6590    4.1802   -0.8536 H        1 ZINC000045253245    0.0700
56     H56    -6.5782    2.9491    0.0459 H        1 ZINC000045253245    0.2200
57     H57    -4.6114   -2.4466    0.0334 H        1 ZINC000045253245    0.1400
58     H58    -4.3698   -4.3254    0.9191 H        1 ZINC000045253245    0.0600
59     H59    -4.3829   -4.3233   -0.8608 H        1 ZINC000045253245    0.0600
60     H60    -3.7278   -5.7228    0.0227 H        1 ZINC000045253245    0.1000
61     H61     0.2215   -2.9640   -0.8921 H        1 ZINC000045253245    0.3800
@<TRIPOS>BOND
1     1     2     1
2     1     35    1
3     1     36    1
4     1     37    1
5     2     3     1
6     3     33    ar
7     3     4     ar
8     4     5     ar
9     4     38    1
10    5     6     1
11    5     29    ar
12    6     28    1
13    6     7     2
14    7     8     1
15    7     39    1
16    8     9     1
17    8     27    1
18    9     26    ar
19    9     10    ar
20    10    11    ar
21    11    12    1
22    11    18    ar
23    12    17    1
24    12    13    1
25    13    14    1
26    13    40    1
27    13    41    1
28    14    15    1
29    14    42    1
30    14    43    1
31    15    16    1
32    16    17    1
33    16    44    1
34    16    45    1
35    17    46    1
36    17    47    1
37    18    19    ar
38    19    20    1
39    19    26    ar
40    20    25    1
41    20    21    1
42    21    22    1
43    21    48    1
44    21    49    1
45    22    23    1
46    22    50    1
47    22    51    1
48    23    24    1
49    24    25    1
50    24    52    1
51    24    53    1
52    25    54    1
53    25    55    1
54    27    28    2
55    27    56    1
56    29    30    ar
57    29    57    1
58    30    31    1
59    30    33    ar
60    31    32    1
61    32    58    1
62    32    59    1
63    32    60    1
64    33    34    1
65    34    61    1
@<TRIPOS>SUBSTRUCTURE
1   ZINC000045253245 1     RESIDUE    1   A     ZIN   1


@<TRIPOS>MOLECULE
CC1=NC(=NC(=N1)N2C3=CC=CC=C3N=C2NC4=CC=NN4)N
36    39    1     0     0
SMALL
USER_CHARGES
@<TRIPOS>ATOM
1      C1     -0.0184    1.5028    0.0103 C.3      1 ZINC000064744190   -0.0900
2      C2      0.0021   -0.0041    0.0020 C.ar     1 ZINC000064744190    0.4400
3      N3      0.0056   -0.6567   -1.1467 N.ar     1 ZINC000064744190   -0.6100
4      C4      0.0241   -1.9876   -1.1572 C.ar     1 ZINC000064744190    0.6300
5      N5      0.0282   -2.6692   -2.3571 N.pl3    1 ZINC000064744190   -0.7900
6      N6      0.0390   -2.6589   -0.0106 N.ar     1 ZINC000064744190   -0.6200
7      C7      0.0354   -1.9990    1.1411 C.ar     1 ZINC000064744190    0.6300
8      N8      0.0509   -2.6967    2.3418 N.pl3    1 ZINC000064744190   -0.4400
9      C9      0.0765   -4.0764    2.4936 C.ar     1 ZINC000064744190    0.0400
10     C10     0.0935   -5.1401    1.6060 C.ar     1 ZINC000064744190   -0.0800
11     C11     0.1184   -6.4346    2.0850 C.ar     1 ZINC000064744190   -0.1200
12     C12     0.1265   -6.6779    3.4499 C.ar     1 ZINC000064744190   -0.1100
13     C13     0.1099   -5.6321    4.3463 C.ar     1 ZINC000064744190   -0.0800
14     C14     0.0846   -4.3168    3.8775 C.ar     1 ZINC000064744190    0.0900
15     N15     0.0638   -3.1062    4.4960 N.2      1 ZINC000064744190   -0.5100
16     C16     0.0499   -2.1522    3.5997 C.2      1 ZINC000064744190    0.5800
17     N17     0.0281   -0.8019    3.8793 N.pl3    1 ZINC000064744190   -0.5900
18     C18     0.0188   -0.3621    5.2091 C.2      1 ZINC000064744190    0.3200
19     N19    -0.0074    0.8881    5.6075 N.2      1 ZINC000064744190   -0.3200
20     N20    -0.0086    0.9002    7.0082 N.pl3    1 ZINC000064744190   -0.4700
21     C21     0.0175   -0.3791    7.4376 C.2      1 ZINC000064744190    0.0700
22     C22     0.0296   -1.1818    6.3493 C.2      1 ZINC000064744190   -0.2700
23     N23     0.0220   -0.6695    1.1441 N.ar     1 ZINC000064744190   -0.6300
24     H24     1.0042    1.8801    0.0026 H        1 ZINC000064744190    0.1000
25     H25    -0.5455    1.8639   -0.8728 H        1 ZINC000064744190    0.1000
26     H26    -0.5286    1.8543    0.9071 H        1 ZINC000064744190    0.1000
27     H27     0.0176   -2.1784   -3.1937 H        1 ZINC000064744190    0.4200
28     H28     0.0417   -3.6391   -2.3639 H        1 ZINC000064744190    0.4200
29     H29     0.0869   -4.9569    0.5417 H        1 ZINC000064744190    0.1400
30     H30     0.1313   -7.2630    1.3922 H        1 ZINC000064744190    0.1300
31     H31     0.1457   -7.6948    3.8129 H        1 ZINC000064744190    0.1300
32     H32     0.1160   -5.8287    5.4083 H        1 ZINC000064744190    0.1400
33     H33     0.0193   -0.1568    3.1550 H        1 ZINC000064744190    0.4400
34     H34    -0.0251    1.6900    7.5711 H        1 ZINC000064744190    0.4400
35     H35     0.0241   -0.7041    8.4675 H        1 ZINC000064744190    0.1800
36     H36     0.0503   -2.2616    6.3558 H        1 ZINC000064744190    0.1800
@<TRIPOS>BOND
1     1     2     1
2     1     24    1
3     1     25    1
4     1     26    1
5     2     23    ar
6     2     3     ar
7     3     4     ar
8     4     5     1
9     4     6     ar
10    5     27    1
11    5     28    1
12    6     7     ar
13    7     8     1
14    7     23    ar
15    8     16    1
16    8     9     1
17    9     14    ar
18    9     10    ar
19    10    11    ar
20    10    29    1
21    11    12    ar
22    11    30    1
23    12    13    ar
24    12    31    1
25    13    14    ar
26    13    32    1
27    14    15    1
28    15    16    2
29    16    17    1
30    17    18    1
31    17    33    1
32    18    22    1
33    18    19    2
34    19    20    1
35    20    21    1
36    20    34    1
37    21    22    2
38    21    35    1
39    22    36    1
@<TRIPOS>SUBSTRUCTURE
1   ZINC000064744190 1     RESIDUE    1   A     ZIN   1


@<TRIPOS>MOLECULE
CC1=NC(=NC(=N1)N)C2=C(N=C3N2C=CC=C3)NC4=CC=NN4
  36   39    0    0    0
SMALL
USER_CHARGES
NO_NAME
@<TRIPOS>ATOM
    1 C1       -0.0184     1.5028     0.0103 C.3    1 <0>      -0.0900
    2 C2        0.0021    -0.0041     0.0020 C.ar   1 <0>       0.4200
    3 N3        0.0055    -0.6564    -1.1483 N.ar   1 <0>      -0.6200
    4 C4        0.0235    -1.9883    -1.1641 C.ar   1 <0>       0.6100
    5 N5        0.0275    -2.6643    -2.3675 N.pl3  1 <0>      -0.8000
    6 N6        0.0381    -2.6649    -0.0228 N.ar   1 <0>      -0.6300
    7 C7        0.0346    -2.0053     1.1389 C.ar   1 <0>       0.5000
    8 C8        0.0511    -2.7446     2.4046 C.2    1 <0>      -0.1200
    9 C9        0.0438    -2.2038     3.6847 C.2    1 <0>       0.4300
   10 N10       0.0192    -0.8484     3.9996 N.pl3  1 <0>      -0.5900
   11 C11       0.0144    -0.4409     5.3390 C.2    1 <0>       0.3100
   12 N12      -0.0135     0.7994     5.7675 N.2    1 <0>      -0.3300
   13 N13      -0.0083     0.7777     7.1681 N.pl3  1 <0>      -0.4700
   14 C14       0.0235    -0.5114     7.5665 C.2    1 <0>       0.0700
   15 C15       0.0326    -1.2878     6.4592 C.2    1 <0>      -0.2700
   16 N16       0.0639    -3.2091     4.5570 N.2    1 <0>      -0.5200
   17 C17       0.0838    -4.3692     3.9058 C.2    1 <0>       0.2900
   18 C18       0.1090    -5.6999     4.3635 C.2    1 <0>      -0.1000
   19 C19       0.1259    -6.7181     3.4586 C.2    1 <0>      -0.0700
   20 C20       0.1180    -6.4271     2.0868 C.2    1 <0>      -0.1600
   21 C21       0.0941    -5.1428     1.6651 C.2    1 <0>       0.0900
   22 N22       0.0710    -4.1188     2.5614 N.pl3  1 <0>      -0.3300
   23 N23       0.0219    -0.6676     1.1429 N.ar   1 <0>      -0.6100
   24 H24       1.0042     1.8801     0.0026 H      1 <0>       0.1000
   25 H25      -0.5455     1.8639    -0.8728 H      1 <0>       0.0900
   26 H26      -0.5286     1.8543     0.9071 H      1 <0>       0.0900
   27 H27       0.0172    -2.1696    -3.2018 H      1 <0>       0.4200
   28 H28       0.0406    -3.6342    -2.3789 H      1 <0>       0.4200
   29 H29       0.0054    -0.1860     3.2910 H      1 <0>       0.4400
   30 H30      -0.0247     1.5536     7.7500 H      1 <0>       0.4400
   31 H31       0.0355    -0.8611     8.5882 H      1 <0>       0.1800
   32 H32       0.0566    -2.3673     6.4397 H      1 <0>       0.1800
   33 H33       0.1153    -5.9119     5.4225 H      1 <0>       0.1600
   34 H34       0.1457    -7.7439     3.7959 H      1 <0>       0.1500
   35 H35       0.1313    -7.2308     1.3654 H      1 <0>       0.1600
   36 H36       0.0888    -4.9274     0.6068 H      1 <0>       0.1800
@<TRIPOS>BOND
   1    1    2 1
   2    1   24 1
   3    1   25 1
   4    1   26 1
   5    2   23 ar
   6    2    3 ar
   7    3    4 ar
   8    4    5 1
   9    4    6 ar
  10    5   27 1
  11    5   28 1
  12    6    7 ar
  13    7    8 1
  14    7   23 ar
  15    8   22 1
  16    8    9 2
  17    9   10 1
  18    9   16 1
  19   10   11 1
  20   10   29 1
  21   11   15 1
  22   11   12 2
  23   12   13 1
  24   13   14 1
  25   13   30 1
  26   14   15 2
  27   14   31 1
  28   15   32 1
  29   16   17 2
  30   17   22 1
  31   17   18 1
  32   18   19 2
  33   18   33 1
  34   19   20 1
  35   19   34 1
  36   20   21 2
  37   20   35 1
  38   21   22 1
  39   21   36 1


@<TRIPOS>MOLECULE
CCNC(=O)NC1=CC=C(C=C1)C2=NC3=C(C(=N2)N4CCOCC4)SC(=C3)C(C)(C)O
58    61    1     0     0
SMALL
USER_CHARGES
@<TRIPOS>ATOM
1      C1     -0.3072    1.5796   -1.0526 C.3      1 ZINC000071318334   -0.1700
2      C2     -0.3296    0.0578   -1.2093 C.3      1 ZINC000071318334    0.1300
3      N3     -1.5293   -0.4819   -0.5644 N.am     1 ZINC000071318334   -0.7400
4      C4     -1.7614   -1.8095   -0.5762 C.2      1 ZINC000071318334    0.7000
5      O5     -0.9751   -2.5592   -1.1221 O.2      1 ZINC000071318334   -0.5700
6      N6     -2.8650   -2.3059    0.0170 N.am     1 ZINC000071318334   -0.6900
7      C7     -3.1558   -3.6694   -0.0777 C.ar     1 ZINC000071318334    0.1900
8      C8     -2.1236   -4.6005   -0.0807 C.ar     1 ZINC000071318334   -0.1300
9      C9     -2.4078   -5.9458   -0.1741 C.ar     1 ZINC000071318334   -0.0500
10     C10    -3.7324   -6.3728   -0.2656 C.ar     1 ZINC000071318334   -0.0700
11     C11    -4.0408   -7.8191   -0.3656 C.ar     1 ZINC000071318334    0.4000
12     N12    -5.3117   -8.1989   -0.4570 N.ar     1 ZINC000071318334   -0.5400
13     C13    -5.6295   -9.4828   -0.5482 C.ar     1 ZINC000071318334    0.4200
14     N14    -6.9552   -9.8738   -0.6438 N.3      1 ZINC000071318334   -0.4700
15     C15    -7.1796  -10.6851   -1.8490 C.3      1 ZINC000071318334    0.0200
16     C16    -8.6397  -11.1444   -1.8839 C.3      1 ZINC000071318334    0.0700
17     O17    -9.4956   -9.9997   -1.8347 O.3      1 ZINC000071318334   -0.3800
18     C18    -9.3042   -9.1872   -0.6734 C.3      1 ZINC000071318334    0.0600
19     C19    -7.8508   -8.7081   -0.6263 C.3      1 ZINC000071318334    0.0300
20     C20    -4.6016  -10.4413   -0.5470 C.ar     1 ZINC000071318334   -0.2900
21     S21    -4.6434  -12.1956   -0.6495 S.3      1 ZINC000071318334    0.1700
22     C22    -2.8925  -12.2883   -0.5587 C.2      1 ZINC000071318334   -0.1600
23     C23    -2.1005  -13.5700   -0.5888 C.3      1 ZINC000071318334    0.2000
24     C24    -2.9323  -14.6981    0.0247 C.3      1 ZINC000071318334   -0.1500
25     C25    -1.7539  -13.9213   -2.0371 C.3      1 ZINC000071318334   -0.1800
26     O26    -0.8962  -13.4035    0.1622 O.3      1 ZINC000071318334   -0.5400
27     C27    -2.3629  -11.0793   -0.4605 C.2      1 ZINC000071318334   -0.1200
28     C28    -3.2753  -10.0119   -0.4496 C.ar     1 ZINC000071318334    0.2000
29     N29    -3.0456   -8.6826   -0.3660 N.ar     1 ZINC000071318334   -0.5100
30     C30    -4.7662   -5.4367   -0.2623 C.ar     1 ZINC000071318334   -0.0500
31     C31    -4.4771   -4.0928   -0.1630 C.ar     1 ZINC000071318334   -0.1600
32     H32     0.5854    1.9811   -1.5324 H        1 ZINC000071318334    0.0800
33     H33    -1.1944    2.0061   -1.5206 H        1 ZINC000071318334    0.0600
34     H34    -0.2965    1.8356    0.0069 H        1 ZINC000071318334    0.0600
35     H35    -0.3403   -0.1983   -2.2687 H        1 ZINC000071318334    0.0700
36     H36     0.5575   -0.3688   -0.7413 H        1 ZINC000071318334    0.0700
37     H37    -2.1566    0.1163   -0.1289 H        1 ZINC000071318334    0.4000
38     H38    -3.4575   -1.7168    0.5098 H        1 ZINC000071318334    0.4100
39     H39    -1.0980   -4.2693   -0.0103 H        1 ZINC000071318334    0.1500
40     H40    -1.6055   -6.6688   -0.1768 H        1 ZINC000071318334    0.1400
41     H41    -6.9647  -10.0878   -2.7351 H        1 ZINC000071318334    0.0700
42     H42    -6.5245  -11.5560   -1.8287 H        1 ZINC000071318334    0.0900
43     H43    -8.8251  -11.6982   -2.8042 H        1 ZINC000071318334    0.1100
44     H44    -8.8401  -11.7858   -1.0257 H        1 ZINC000071318334    0.0700
45     H45    -9.9702   -8.3255   -0.7183 H        1 ZINC000071318334    0.1100
46     H46    -9.5239   -9.7717    0.2200 H        1 ZINC000071318334    0.0600
47     H47    -7.6857   -8.1358    0.2866 H        1 ZINC000071318334    0.1000
48     H48    -7.6466   -8.0792   -1.4928 H        1 ZINC000071318334    0.0700
49     H49    -3.8509  -14.8251   -0.5482 H        1 ZINC000071318334    0.0700
50     H50    -2.3594  -15.6251    0.0028 H        1 ZINC000071318334    0.0800
51     H51    -3.1791  -14.4477    1.0564 H        1 ZINC000071318334    0.0700
52     H52    -1.1614  -13.1177   -2.4741 H        1 ZINC000071318334    0.0700
53     H53    -1.1811  -14.8484   -2.0589 H        1 ZINC000071318334    0.0800
54     H54    -2.6725  -14.0483   -2.6099 H        1 ZINC000071318334    0.0700
55     H55    -0.3185  -12.7032   -0.1710 H        1 ZINC000071318334    0.3800
56     H56    -1.2963  -10.9236   -0.3927 H        1 ZINC000071318334    0.1500
57     H57    -5.7927   -5.7649   -0.3330 H        1 ZINC000071318334    0.1400
58     H58    -5.2773   -3.3675   -0.1605 H        1 ZINC000071318334    0.1300
@<TRIPOS>BOND
1     1     2     1
2     1     32    1
3     1     33    1
4     1     34    1
5     2     3     1
6     2     35    1
7     2     36    1
8     3     4     am
9     3     37    1
10    4     5     2
11    4     6     am
12    6     7     1
13    6     38    1
14    7     31    ar
15    7     8     ar
16    8     9     ar
17    8     39    1
18    9     10    ar
19    9     40    1
20    10    11    1
21    10    30    ar
22    11    29    ar
23    11    12    ar
24    12    13    ar
25    13    14    1
26    13    20    ar
27    14    19    1
28    14    15    1
29    15    16    1
30    15    41    1
31    15    42    1
32    16    17    1
33    16    43    1
34    16    44    1
35    17    18    1
36    18    19    1
37    18    45    1
38    18    46    1
39    19    47    1
40    19    48    1
41    20    28    ar
42    20    21    1
43    21    22    1
44    22    23    1
45    22    27    2
46    23    24    1
47    23    25    1
48    23    26    1
49    24    49    1
50    24    50    1
51    24    51    1
52    25    52    1
53    25    53    1
54    25    54    1
55    26    55    1
56    27    28    1
57    27    56    1
58    28    29    ar
59    30    31    ar
60    30    57    1
61    31    58    1
@<TRIPOS>SUBSTRUCTURE
1   ZINC000071318334 1     RESIDUE    1   A     ZIN   1


@<TRIPOS>MOLECULE
CCNC(=O)NC1=CC=C(C=C1)C2=NC3=C(CCN(C3)C4=NC=CC=N4)C(=N2)N5CCOCC5C
  65   69    0    0    0
SMALL
USER_CHARGES
NO_NAME
@<TRIPOS>ATOM
    1 C1        1.0629     1.5845     0.3124 C.3    1 <0>      -0.1700
    2 C2        1.2318     0.0641     0.3380 C.3    1 <0>       0.1300
    3 N3        1.2811    -0.4450    -1.0348 N.am   1 <0>      -0.7400
    4 C4        1.4265    -1.7660    -1.2589 C.2    1 <0>       0.7000
    5 O5        1.5168    -2.5352    -0.3217 O.2    1 <0>      -0.5700
    6 N6        1.4718    -2.2343    -2.5219 N.am   1 <0>      -0.6900
    7 C7        1.7174    -3.5894    -2.7560 C.ar   1 <0>       0.1900
    8 C8        1.2155    -4.5468    -1.8818 C.ar   1 <0>      -0.1300
    9 C9        1.4564    -5.8842    -2.1105 C.ar   1 <0>      -0.0500
   10 C10       2.2045    -6.2770    -3.2203 C.ar   1 <0>      -0.0700
   11 C11       2.4647    -7.7146    -3.4689 C.ar   1 <0>       0.3800
   12 N12       1.9742    -8.6145    -2.6292 N.ar   1 <0>      -0.5100
   13 C13       2.1828    -9.9127    -2.8176 C.ar   1 <0>       0.1900
   14 C14       2.9203   -10.3204    -3.9049 C.ar   1 <0>      -0.1500
   15 C15       3.1904   -11.7739    -4.1835 C.3    1 <0>      -0.0600
   16 C16       2.9124   -12.6041    -2.9290 C.3    1 <0>       0.0600
   17 N17       1.5825   -12.2429    -2.4131 N.3    1 <0>      -0.4600
   18 C18       1.1402   -13.1724    -1.4879 C.ar   1 <0>       0.4900
   19 N19       1.9135   -14.2059    -1.1891 N.ar   1 <0>      -0.5500
   20 C20       1.5209   -15.1120    -0.3089 C.ar   1 <0>       0.1700
   21 C21       0.2851   -14.9698     0.3024 C.ar   1 <0>      -0.2600
   22 C22      -0.4984   -13.8769    -0.0334 C.ar   1 <0>       0.1800
   23 N23      -0.0441   -13.0047    -0.9180 N.ar   1 <0>      -0.5300
   24 C24       1.6085   -10.8956    -1.8335 C.3    1 <0>       0.1200
   25 C25       3.4288    -9.3494    -4.7749 C.ar   1 <0>       0.3600
   26 N26       4.1786    -9.7194    -5.8796 N.3    1 <0>      -0.4800
   27 C27       3.5569    -9.2401    -7.1227 C.3    1 <0>       0.0200
   28 C28       4.3835    -9.7207    -8.3185 C.3    1 <0>       0.0700
   29 O29       5.7307    -9.2626    -8.1753 O.3    1 <0>      -0.3800
   30 C30       6.3669    -9.7113    -6.9756 C.3    1 <0>       0.0700
   31 C31       5.5605    -9.2307    -5.7662 C.3    1 <0>       0.0500
   32 H32       5.5601    -8.1411    -5.7387 H      1 <0>       0.0700
   33 C33       6.1917    -9.7739    -4.4827 C.3    1 <0>      -0.1500
   34 N34       3.1782    -8.0688    -4.5294 N.ar   1 <0>      -0.5400
   35 C35       2.7070    -5.3146    -4.0959 C.ar   1 <0>      -0.0500
   36 C36       2.4585    -3.9787    -3.8659 C.ar   1 <0>      -0.1600
   37 H37       1.9057     2.0349    -0.2120 H      1 <0>       0.0600
   38 H38       0.1366     1.8386    -0.2027 H      1 <0>       0.0600
   39 H39       1.0263     1.9632     1.3339 H      1 <0>       0.0800
   40 H40       2.1582    -0.1900     0.8532 H      1 <0>       0.0700
   41 H41       0.3891    -0.3863     0.8625 H      1 <0>       0.0700
   42 H42       1.2090     0.1688    -1.7825 H      1 <0>       0.4000
   43 H43       1.3339    -1.6304    -3.2683 H      1 <0>       0.4100
   44 H44       0.6366    -4.2421    -1.0224 H      1 <0>       0.1500
   45 H45       1.0666    -6.6275    -1.4309 H      1 <0>       0.1400
   46 H46       2.5443   -12.1136    -4.9931 H      1 <0>       0.0900
   47 H47       4.2327   -11.8989    -4.4769 H      1 <0>       0.1000
   48 H48       2.9319   -13.6646    -3.1802 H      1 <0>       0.1100
   49 H49       3.6685   -12.3901    -2.1736 H      1 <0>       0.0600
   50 H50       2.1556   -15.9525    -0.0697 H      1 <0>       0.1700
   51 H51      -0.0600   -15.6951     1.0244 H      1 <0>       0.1500
   52 H52      -1.4665   -13.7371     0.4245 H      1 <0>       0.1700
   53 H53       2.2210   -10.9027    -0.9319 H      1 <0>       0.0700
   54 H54       0.5934   -10.5949    -1.5742 H      1 <0>       0.1200
   55 H55       2.5437    -9.6347    -7.1985 H      1 <0>       0.0900
   56 H56       3.5245    -8.1506    -7.1169 H      1 <0>       0.0600
   57 H57       4.3713   -10.8100    -8.3551 H      1 <0>       0.0600
   58 H58       3.9588    -9.3201    -9.2390 H      1 <0>       0.1000
   59 H59       6.4124   -10.8004    -6.9732 H      1 <0>       0.0600
   60 H60       7.3767    -9.3040    -6.9248 H      1 <0>       0.1000
   61 H61       7.2429    -9.4881    -4.4456 H      1 <0>       0.0700
   62 H62       5.6718    -9.3599    -3.6187 H      1 <0>       0.0500
   63 H63       6.1100   -10.8608    -4.4694 H      1 <0>       0.0700
   64 H64       3.2868    -5.6162    -4.9556 H      1 <0>       0.1400
   65 H65       2.8474    -3.2331    -4.5436 H      1 <0>       0.1300
@<TRIPOS>BOND
   1    1    2 1
   2    1   37 1
   3    1   38 1
   4    1   39 1
   5    2    3 1
   6    2   40 1
   7    2   41 1
   8    3    4 am
   9    3   42 1
  10    4    5 2
  11    4    6 am
  12    6    7 1
  13    6   43 1
  14    7   36 ar
  15    7    8 ar
  16    8    9 ar
  17    8   44 1
  18    9   10 ar
  19    9   45 1
  20   10   11 1
  21   10   35 ar
  22   11   34 ar
  23   11   12 ar
  24   12   13 ar
  25   13   24 1
  26   13   14 ar
  27   14   15 1
  28   14   25 ar
  29   15   16 1
  30   15   46 1
  31   15   47 1
  32   16   17 1
  33   16   48 1
  34   16   49 1
  35   17   18 1
  36   17   24 1
  37   18   23 ar
  38   18   19 ar
  39   19   20 ar
  40   20   21 ar
  41   20   50 1
  42   21   22 ar
  43   21   51 1
  44   22   23 ar
  45   22   52 1
  46   24   53 1
  47   24   54 1
  48   25   26 1
  49   25   34 ar
  50   26   31 1
  51   26   27 1
  52   27   28 1
  53   27   55 1
  54   27   56 1
  55   28   29 1
  56   28   57 1
  57   28   58 1
  58   29   30 1
  59   30   31 1
  60   30   59 1
  61   30   60 1
  62   31   32 1
  63   31   33 1
  64   33   61 1
  65   33   62 1
  66   33   63 1
  67   35   36 ar
  68   35   64 1
  69   36   65 1


@<TRIPOS>MOLECULE
CCNC(=O)NC1=CC=C(C=C1)C2=NC3=C(CS(=O)(=O)C3(C)C)C(=N2)N4CCOCC4C
61    64    1     0     0
SMALL
USER_CHARGES
@<TRIPOS>ATOM
1      C1     -0.3115    1.5802   -1.0345 C.3      1 ZINC000143379751   -0.1700
2      C2     -0.3335    0.0587   -1.1937 C.3      1 ZINC000143379751    0.1300
3      N3     -1.5337   -0.4823   -0.5511 N.am     1 ZINC000143379751   -0.7400
4      C4     -1.7655   -1.8099   -0.5653 C.2      1 ZINC000143379751    0.7000
5      O5     -0.9784   -2.5586   -1.1115 O.2      1 ZINC000143379751   -0.5700
6      N6     -2.8696   -2.3076    0.0259 N.am     1 ZINC000143379751   -0.6900
7      C7     -3.1596   -3.6707   -0.0708 C.ar     1 ZINC000143379751    0.1900
8      C8     -2.1268   -4.6014   -0.0733 C.ar     1 ZINC000143379751   -0.1300
9      C9     -2.4102   -5.9466   -0.1686 C.ar     1 ZINC000143379751   -0.0500
10     C10    -3.7346   -6.3742   -0.2621 C.ar     1 ZINC000143379751   -0.0700
11     C11    -4.0421   -7.8203   -0.3642 C.ar     1 ZINC000143379751    0.4000
12     N12    -3.0482   -8.6981   -0.3601 N.ar     1 ZINC000143379751   -0.5300
13     C13    -3.3033   -9.9940   -0.4499 C.ar     1 ZINC000143379751    0.3900
14     N14    -2.2626  -10.9087   -0.4448 N.3      1 ZINC000143379751   -0.4800
15     C15    -1.3329  -10.6552   -1.5550 C.3      1 ZINC000143379751    0.0200
16     C16    -0.2345  -11.7217   -1.5474 C.3      1 ZINC000143379751    0.0700
17     O17     0.4232  -11.7124   -0.2775 O.3      1 ZINC000143379751   -0.3800
18     C18    -0.4527  -11.9566    0.8264 C.3      1 ZINC000143379751    0.0700
19     C19    -1.5533  -10.8925    0.8427 C.3      1 ZINC000143379751    0.0500
20     H20    -1.1076   -9.9103    1.0004 H        1 ZINC000143379751    0.0700
21     C21    -2.5386  -11.1939    1.9738 C.3      1 ZINC000143379751   -0.1500
22     C22    -4.6353  -10.4404   -0.5503 C.ar     1 ZINC000143379751   -0.1700
23     C23    -5.0945  -11.8851   -0.6598 C.3      1 ZINC000143379751   -0.5300
24     S24    -6.8676  -11.8160   -0.2070 S.o2     1 ZINC000143379751    2.4000
25     O25    -7.6248  -12.6236   -1.0978 O.2      1 ZINC000143379751   -0.9100
26     O26    -7.0129  -11.9700    1.1982 O.2      1 ZINC000143379751   -0.9100
27     C27    -7.0481  -10.0514   -0.6619 C.3      1 ZINC000143379751   -0.4700
28     C28    -7.5665   -9.9164   -2.0951 C.3      1 ZINC000143379751   -0.1200
29     C29    -7.9839   -9.3376    0.3157 C.3      1 ZINC000143379751   -0.1300
30     C30    -5.6349   -9.5010   -0.5513 C.ar     1 ZINC000143379751    0.2000
31     N31    -5.3015   -8.2098   -0.4522 N.ar     1 ZINC000143379751   -0.5000
32     C32    -4.7690   -5.4385   -0.2590 C.ar     1 ZINC000143379751   -0.0400
33     C33    -4.4806   -4.0947   -0.1586 C.ar     1 ZINC000143379751   -0.1600
34     H34     0.5815    1.9828   -1.5126 H        1 ZINC000143379751    0.0800
35     H35    -1.1983    2.0074   -1.5028 H        1 ZINC000143379751    0.0600
36     H36    -0.3021    1.8345    0.0254 H        1 ZINC000143379751    0.0600
37     H37    -0.3429   -0.1956   -2.2536 H        1 ZINC000143379751    0.0700
38     H38     0.5533   -0.3684   -0.7254 H        1 ZINC000143379751    0.0700
39     H39    -2.1616    0.1150   -0.1153 H        1 ZINC000143379751    0.4000
40     H40    -3.4630   -1.7193    0.5186 H        1 ZINC000143379751    0.4100
41     H41    -1.1015   -4.2698   -0.0009 H        1 ZINC000143379751    0.1500
42     H42    -1.6075   -6.6692   -0.1712 H        1 ZINC000143379751    0.1400
43     H43    -1.8744  -10.6972   -2.5001 H        1 ZINC000143379751    0.0900
44     H44    -0.8837   -9.6693   -1.4357 H        1 ZINC000143379751    0.0700
45     H45    -0.6781  -12.7023   -1.7203 H        1 ZINC000143379751    0.0600
46     H46     0.4887  -11.5050   -2.3335 H        1 ZINC000143379751    0.1100
47     H47    -0.9026  -12.9440    0.7225 H        1 ZINC000143379751    0.0600
48     H48     0.1128  -11.9097    1.7570 H        1 ZINC000143379751    0.1100
49     H49    -1.9967  -11.2735    2.9162 H        1 ZINC000143379751    0.0800
50     H50    -3.2703  -10.3890    2.0423 H        1 ZINC000143379751    0.0500
51     H51    -3.0507  -12.1340    1.7686 H        1 ZINC000143379751    0.0700
52     H52    -4.9740  -12.2487   -1.6803 H        1 ZINC000143379751    0.1600
53     H53    -4.5452  -12.5154    0.0395 H        1 ZINC000143379751    0.1500
54     H54    -8.5379  -10.4039   -2.1775 H        1 ZINC000143379751    0.0900
55     H55    -7.6672   -8.8607   -2.3471 H        1 ZINC000143379751    0.0900
56     H56    -6.8636  -10.3884   -2.7816 H        1 ZINC000143379751    0.0700
57     H57    -7.5745   -9.4028    1.3238 H        1 ZINC000143379751    0.0800
58     H58    -8.0787   -8.2903    0.0290 H        1 ZINC000143379751    0.0900
59     H59    -8.9653   -9.8113    0.2908 H        1 ZINC000143379751    0.0800
60     H60    -5.7952   -5.7672   -0.3316 H        1 ZINC000143379751    0.1400
61     H61    -5.2812   -3.3698   -0.1561 H        1 ZINC000143379751    0.1300
@<TRIPOS>BOND
1     1     2     1
2     1     34    1
3     1     35    1
4     1     36    1
5     2     3     1
6     2     37    1
7     2     38    1
8     3     4     am
9     3     39    1
10    4     5     2
11    4     6     am
12    6     7     1
13    6     40    1
14    7     33    ar
15    7     8     ar
16    8     9     ar
17    8     41    1
18    9     10    ar
19    9     42    1
20    10    11    1
21    10    32    ar
22    11    31    ar
23    11    12    ar
24    12    13    ar
25    13    14    1
26    13    22    ar
27    14    19    1
28    14    15    1
29    15    16    1
30    15    43    1
31    15    44    1
32    16    17    1
33    16    45    1
34    16    46    1
35    17    18    1
36    18    19    1
37    18    47    1
38    18    48    1
39    19    20    1
40    19    21    1
41    21    49    1
42    21    50    1
43    21    51    1
44    22    30    ar
45    22    23    1
46    23    24    1
47    23    52    1
48    23    53    1
49    24    25    2
50    24    26    2
51    24    27    1
52    27    28    1
53    27    29    1
54    27    30    1
55    28    54    1
56    28    55    1
57    28    56    1
58    29    57    1
59    29    58    1
60    29    59    1
61    30    31    ar
62    32    33    ar
63    32    60    1
64    33    61    1
@<TRIPOS>SUBSTRUCTURE
1   ZINC000143379751 1     RESIDUE    1   A     ZIN   1


@<TRIPOS>MOLECULE
CCNC(=O)NC1=CC=C(C=C1)C2=NC3=C(CCN(C3)C4COC4)C(=N2)N5CCOCC5C
65    69    1     0     0
SMALL
USER_CHARGES
@<TRIPOS>ATOM
1      C1     -0.3898    1.6213   -0.9596 C.3      1 ZINC000095587536   -0.1700
2      C2     -0.4060    0.1024   -1.1428 C.3      1 ZINC000095587536    0.1300
3      N3     -1.5971   -0.4547   -0.4970 N.am     1 ZINC000095587536   -0.7400
4      C4     -1.8225   -1.7831   -0.5301 C.2      1 ZINC000095587536    0.7000
5      O5     -1.0373   -2.5190   -1.0960 O.2      1 ZINC000095587536   -0.5700
6      N6     -2.9183   -2.2957    0.0640 N.am     1 ZINC000095587536   -0.6900
7      C7     -3.2013   -3.6590   -0.0497 C.ar     1 ZINC000095587536    0.1900
8      C8     -2.1633   -4.5835   -0.0745 C.ar     1 ZINC000095587536   -0.1300
9      C9     -2.4400   -5.9288   -0.1866 C.ar     1 ZINC000095587536   -0.0500
10     C10    -3.7626   -6.3627   -0.2751 C.ar     1 ZINC000095587536   -0.0700
11     C11    -4.0629   -7.8089   -0.3952 C.ar     1 ZINC000095587536    0.3800
12     N12    -3.0623   -8.6773   -0.4115 N.ar     1 ZINC000095587536   -0.5100
13     C13    -3.2890   -9.9819   -0.5156 C.ar     1 ZINC000095587536    0.1900
14     C14    -4.5865  -10.4298   -0.6065 C.ar     1 ZINC000095587536   -0.1500
15     C15    -4.9172  -11.8930   -0.7202 C.3      1 ZINC000095587536   -0.0500
16     C16    -3.6692  -12.6777   -1.1289 C.3      1 ZINC000095587536    0.0400
17     N17    -2.5621  -12.2946   -0.2385 N.3      1 ZINC000095587536   -0.5200
18     C18    -1.4468  -13.2446   -0.3464 C.3      1 ZINC000095587536    0.0100
19     C19    -0.6055  -13.3647    0.9383 C.3      1 ZINC000095587536    0.0500
20     O20    -0.6363  -14.7848    0.6906 O.3      1 ZINC000095587536   -0.3800
21     C21    -1.8491  -14.7084   -0.0853 C.3      1 ZINC000095587536    0.0500
22     C22    -2.1189  -10.9278   -0.5341 C.3      1 ZINC000095587536    0.1000
23     C23    -5.6246   -9.4915   -0.5893 C.ar     1 ZINC000095587536    0.3500
24     N24    -6.9445   -9.9024   -0.6814 N.3      1 ZINC000095587536   -0.4800
25     C25    -7.6574   -9.6722    0.5836 C.3      1 ZINC000095587536    0.0200
26     C26    -9.0913  -10.1937    0.4573 C.3      1 ZINC000095587536    0.0700
27     O27    -9.7309   -9.5519   -0.6492 O.3      1 ZINC000095587536   -0.3800
28     C28    -9.0633   -9.7558   -1.8975 C.3      1 ZINC000095587536    0.0700
29     C29    -7.6292   -9.2299   -1.7950 C.3      1 ZINC000095587536    0.0500
30     H30    -7.6477   -8.1550   -1.6150 H        1 ZINC000095587536    0.0700
31     C31    -6.8854   -9.5164   -3.1010 C.3      1 ZINC000095587536   -0.1400
32     N32    -5.3269   -8.2024   -0.4782 N.ar     1 ZINC000095587536   -0.5400
33     C33    -4.8022   -5.4331   -0.2499 C.ar     1 ZINC000095587536   -0.0500
34     C34    -4.5207   -4.0893   -0.1320 C.ar     1 ZINC000095587536   -0.1600
35     H35     0.4964    2.0359   -1.4401 H        1 ZINC000095587536    0.0800
36     H36    -1.2833    2.0514   -1.4122 H        1 ZINC000095587536    0.0600
37     H37    -0.3711    1.8588    0.1041 H        1 ZINC000095587536    0.0600
38     H38    -0.4247   -0.1350   -2.2065 H        1 ZINC000095587536    0.0700
39     H39     0.4875   -0.3276   -0.6902 H        1 ZINC000095587536    0.0700
40     H40    -2.2235    0.1324   -0.0456 H        1 ZINC000095587536    0.4000
41     H41    -3.5104   -1.7180    0.5705 H        1 ZINC000095587536    0.4100
42     H42    -1.1393   -4.2470   -0.0063 H        1 ZINC000095587536    0.1500
43     H43    -1.6333   -6.6466   -0.2062 H        1 ZINC000095587536    0.1400
44     H44    -5.2762  -12.2590    0.2417 H        1 ZINC000095587536    0.0900
45     H45    -5.6943  -12.0314   -1.4719 H        1 ZINC000095587536    0.0900
46     H46    -3.8617  -13.7465   -1.0346 H        1 ZINC000095587536    0.0900
47     H47    -3.4086  -12.4397   -2.1602 H        1 ZINC000095587536    0.0400
48     H48    -0.8549  -13.1055   -1.2511 H        1 ZINC000095587536    0.0800
49     H49     0.3883  -12.9244    0.8573 H        1 ZINC000095587536    0.0900
50     H50    -1.1350  -13.0632    1.8420 H        1 ZINC000095587536    0.0900
51     H51    -2.7584  -14.8171    0.5059 H        1 ZINC000095587536    0.0900
52     H52    -1.8417  -15.3338   -0.9780 H        1 ZINC000095587536    0.0900
53     H53    -1.6525  -10.9051   -1.5190 H        1 ZINC000095587536    0.0700
54     H54    -1.3905  -10.6152    0.2140 H        1 ZINC000095587536    0.1100
55     H55    -7.1479  -10.2000    1.3898 H        1 ZINC000095587536    0.0900
56     H56    -7.6763   -8.6044    0.8016 H        1 ZINC000095587536    0.0600
57     H57    -9.0736  -11.2710    0.2925 H        1 ZINC000095587536    0.0600
58     H58    -9.6405   -9.9738    1.3727 H        1 ZINC000095587536    0.1000
59     H59    -9.0448  -10.8204   -2.1307 H        1 ZINC000095587536    0.0600
60     H60    -9.5924   -9.2192   -2.6851 H        1 ZINC000095587536    0.1000
61     H61    -7.3439   -8.9506   -3.9120 H        1 ZINC000095587536    0.0700
62     H62    -5.8414   -9.2211   -2.9969 H        1 ZINC000095587536    0.0500
63     H63    -6.9410  -10.5818   -3.3245 H        1 ZINC000095587536    0.0700
64     H64    -5.8271   -5.7666   -0.3186 H        1 ZINC000095587536    0.1400
65     H65    -5.3253   -3.3691   -0.1124 H        1 ZINC000095587536    0.1300
@<TRIPOS>BOND
1     1     2     1
2     1     35    1
3     1     36    1
4     1     37    1
5     2     3     1
6     2     38    1
7     2     39    1
8     3     4     am
9     3     40    1
10    4     5     2
11    4     6     am
12    6     7     1
13    6     41    1
14    7     34    ar
15    7     8     ar
16    8     9     ar
17    8     42    1
18    9     10    ar
19    9     43    1
20    10    11    1
21    10    33    ar
22    11    32    ar
23    11    12    ar
24    12    13    ar
25    13    22    1
26    13    14    ar
27    14    15    1
28    14    23    ar
29    15    16    1
30    15    44    1
31    15    45    1
32    16    17    1
33    16    46    1
34    16    47    1
35    17    18    1
36    17    22    1
37    18    21    1
38    18    19    1
39    18    48    1
40    19    20    1
41    19    49    1
42    19    50    1
43    20    21    1
44    21    51    1
45    21    52    1
46    22    53    1
47    22    54    1
48    23    24    1
49    23    32    ar
50    24    29    1
51    24    25    1
52    25    26    1
53    25    55    1
54    25    56    1
55    26    27    1
56    26    57    1
57    26    58    1
58    27    28    1
59    28    29    1
60    28    59    1
61    28    60    1
62    29    30    1
63    29    31    1
64    31    61    1
65    31    62    1
66    31    63    1
67    33    34    ar
68    33    64    1
69    34    65    1
@<TRIPOS>SUBSTRUCTURE
1   ZINC000095587536 1     RESIDUE    1   A     ZIN   1


@<TRIPOS>MOLECULE
CCN1C2=NC(=NC(=C2C=C(C1=O)C3=CC=NN3)C)N
34    36    1     0     0
SMALL
USER_CHARGES
@<TRIPOS>ATOM
1      C1     -0.0187    1.5258    0.0104 C.3      1 ZINC000035308805   -0.1600
2      C2      0.0021   -0.0041    0.0020 C.3      1 ZINC000035308805    0.1000
3      N3      0.7106   -0.4894    1.1889 N.am     1 ZINC000035308805   -0.5100
4      C4      2.0418   -0.6880    1.1359 C.2      1 ZINC000035308805    0.5500
5      O5      2.6472   -0.4636    0.1029 O.2      1 ZINC000035308805   -0.4900
6      C6      2.7650   -1.1718    2.3136 C.2      1 ZINC000035308805   -0.1200
7      C7      4.2301   -1.3891    2.2544 C.2      1 ZINC000035308805    0.1200
8      N8      5.0028   -1.1810    1.2084 N.2      1 ZINC000035308805   -0.2500
9      N9      6.3172   -1.5063    1.5667 N.pl3    1 ZINC000035308805   -0.4800
10     C10     6.3136   -1.9147    2.8540 C.2      1 ZINC000035308805    0.0600
11     C11     5.0436   -1.8491    3.3091 C.2      1 ZINC000035308805   -0.2600
12     C12     2.0763   -1.4211    3.4697 C.2      1 ZINC000035308805    0.0300
13     C13     0.6794   -1.2039    3.4958 C.ar     1 ZINC000035308805   -0.2900
14     C14    -0.0720   -1.4439    4.6558 C.ar     1 ZINC000035308805    0.2900
15     C15     0.5922   -1.9423    5.9133 C.3      1 ZINC000035308805   -0.1200
16     N16    -1.3730   -1.2233    4.6227 N.ar     1 ZINC000035308805   -0.5900
17     C17    -1.9681   -0.7835    3.5195 C.ar     1 ZINC000035308805    0.6200
18     N18    -3.3319   -0.5691    3.5398 N.pl3    1 ZINC000035308805   -0.8100
19     N19    -1.3013   -0.5429    2.4011 N.ar     1 ZINC000035308805   -0.6100
20     C20     0.0124   -0.7316    2.3449 C.ar     1 ZINC000035308805    0.4700
21     H21     1.0039    1.9031    0.0027 H        1 ZINC000035308805    0.0600
22     H22    -0.5459    1.8868   -0.8726 H        1 ZINC000035308805    0.0800
23     H23    -0.5289    1.8773    0.9072 H        1 ZINC000035308805    0.0600
24     H24    -1.0205   -0.3814    0.0098 H        1 ZINC000035308805    0.1000
25     H25     0.5123   -0.3556   -0.8948 H        1 ZINC000035308805    0.1000
26     H26     7.0951   -1.4486    0.9902 H        1 ZINC000035308805    0.4400
27     H27     7.1755   -2.2341    3.4211 H        1 ZINC000035308805    0.1800
28     H28     4.7099   -2.1090    4.3029 H        1 ZINC000035308805    0.1500
29     H29     2.5919   -1.7787    4.3487 H        1 ZINC000035308805    0.1500
30     H30     0.9087   -1.0927    6.5184 H        1 ZINC000035308805    0.1000
31     H31    -0.1132   -2.5497    6.4806 H        1 ZINC000035308805    0.0900
32     H32     1.4615   -2.5452    5.6507 H        1 ZINC000035308805    0.0900
33     H33    -3.8376   -0.7394    4.3499 H        1 ZINC000035308805    0.4200
34     H34    -3.7843   -0.2481    2.7441 H        1 ZINC000035308805    0.4200
@<TRIPOS>BOND
1     1     2     1
2     1     21    1
3     1     22    1
4     1     23    1
5     2     3     1
6     2     24    1
7     2     25    1
8     3     20    1
9     3     4     am
10    4     5     2
11    4     6     1
12    6     7     1
13    6     12    2
14    7     11    1
15    7     8     2
16    8     9     1
17    9     10    1
18    9     26    1
19    10    11    2
20    10    27    1
21    11    28    1
22    12    13    1
23    12    29    1
24    13    20    ar
25    13    14    ar
26    14    15    1
27    14    16    ar
28    15    30    1
29    15    31    1
30    15    32    1
31    16    17    ar
32    17    18    1
33    17    19    ar
34    18    33    1
35    18    34    1
36    19    20    ar
@<TRIPOS>SUBSTRUCTURE
1   ZINC000035308805 1     RESIDUE    1   A     ZIN   1


@<TRIPOS>MOLECULE
CC1=C(C=C(C=C1)C(=O)NC2=CC=C(C=C2)S(=O)(=O)NC3=NC4=CC=CC=C4N=C3NC5=CC(=CC(=C5)OC)OC)OC
71    75    1     0     0
SMALL
USER_CHARGES
@<TRIPOS>ATOM
1      C1     -4.0692    1.6221    1.3666 C.3      1 ZINC000070471842    0.0300
2      O2     -4.1852    0.1994    1.4327 O.3      1 ZINC000070471842   -0.3100
3      C3     -3.3001   -0.5264    0.7001 C.ar     1 ZINC000070471842    0.1800
4      C4     -3.3602   -1.9114    0.7142 C.ar     1 ZINC000070471842   -0.1900
5      C5     -2.4557   -2.6528   -0.0344 C.ar     1 ZINC000070471842    0.2600
6      N6     -2.5157   -4.0487   -0.0211 N.pl3    1 ZINC000070471842   -0.6300
7      C7     -3.7399   -4.6893    0.1068 C.ar     1 ZINC000070471842    0.3700
8      C8     -3.7866   -6.0981    0.2345 C.ar     1 ZINC000070471842    0.4200
9      N9     -2.6087   -6.8298    0.2304 N.pl3    1 ZINC000070471842   -1.0700
10     S10    -2.6574   -8.4783    0.3795 S.o2     1 ZINC000070471842    2.6400
11     O11    -3.1398   -8.7488    1.6884 O.2      1 ZINC000070471842   -1.0100
12     O12    -3.2852   -8.9692   -0.7970 O.2      1 ZINC000070471842   -1.0100
13     C13    -0.9933   -9.0556    0.3333 C.ar     1 ZINC000070471842   -0.6400
14     C14    -0.4097   -9.3820   -0.8772 C.ar     1 ZINC000070471842    0.0000
15     C15     0.8943   -9.8352   -0.9168 C.ar     1 ZINC000070471842   -0.1700
16     C16     1.6197   -9.9627    0.2607 C.ar     1 ZINC000070471842    0.1800
17     N17     2.9405  -10.4208    0.2241 N.am     1 ZINC000070471842   -0.6700
18     C18     3.4109  -11.2012    1.2172 C.2      1 ZINC000070471842    0.5600
19     O19     2.7158  -11.4367    2.1862 O.2      1 ZINC000070471842   -0.5100
20     C20     4.7721  -11.7708    1.1280 C.ar     1 ZINC000070471842   -0.1000
21     C21     5.5745  -11.4973    0.0191 C.ar     1 ZINC000070471842   -0.1200
22     C22     6.8450  -12.0303   -0.0606 C.ar     1 ZINC000070471842   -0.0900
23     C23     7.3266  -12.8352    0.9549 C.ar     1 ZINC000070471842   -0.0900
24     C24     8.7152  -13.4129    0.8604 C.3      1 ZINC000070471842   -0.1100
25     C25     6.5357  -13.1128    2.0619 C.ar     1 ZINC000070471842    0.1200
26     O26     7.0145  -13.9047    3.0573 O.3      1 ZINC000070471842   -0.3100
27     C27     6.1470  -14.1486    4.1664 C.3      1 ZINC000070471842    0.0200
28     C28     5.2616  -12.5790    2.1547 C.ar     1 ZINC000070471842   -0.1400
29     C29     1.0307   -9.6336    1.4747 C.ar     1 ZINC000070471842   -0.1400
30     C30    -0.2720   -9.1760    1.5069 C.ar     1 ZINC000070471842    0.0000
31     N31    -4.9418   -6.7183    0.3575 N.ar     1 ZINC000070471842   -0.5700
32     C32    -6.0810   -6.0106    0.3614 C.ar     1 ZINC000070471842    0.1200
33     C33    -7.3249   -6.6487    0.4918 C.ar     1 ZINC000070471842   -0.1100
34     C34    -8.4680   -5.9078    0.4934 C.ar     1 ZINC000070471842   -0.1100
35     C35    -8.4222   -4.5220    0.3667 C.ar     1 ZINC000070471842   -0.1500
36     C36    -7.2330   -3.8703    0.2379 C.ar     1 ZINC000070471842   -0.0700
37     C37    -6.0343   -4.6016    0.2332 C.ar     1 ZINC000070471842    0.0400
38     N38    -4.8510   -3.9821    0.1141 N.ar     1 ZINC000070471842   -0.4800
39     C39    -1.4917   -2.0061   -0.7966 C.ar     1 ZINC000070471842   -0.2300
40     C40    -1.4331   -0.6211   -0.8095 C.ar     1 ZINC000070471842    0.1800
41     O41    -0.4899    0.0119   -1.5553 O.3      1 ZINC000070471842   -0.3200
42     C42    -0.4875    1.4406   -1.5218 C.3      1 ZINC000070471842    0.0300
43     C43    -2.3406    0.1187   -0.0659 C.ar     1 ZINC000070471842   -0.3300
44     H44    -4.8334    2.0785    1.9957 H        1 ZINC000070471842    0.1000
45     H45    -3.0822    1.9229    1.7178 H        1 ZINC000070471842    0.0500
46     H46    -4.2037    1.9501    0.3359 H        1 ZINC000070471842    0.0500
47     H47    -4.1100   -2.4135    1.3076 H        1 ZINC000070471842    0.1500
48     H48    -1.7016   -4.5700   -0.1014 H        1 ZINC000070471842    0.4300
49     H49    -0.9743   -9.2827   -1.7924 H        1 ZINC000070471842    0.1400
50     H50     1.3494  -10.0906   -1.8624 H        1 ZINC000070471842    0.1300
51     H51     3.5181  -10.1770   -0.5161 H        1 ZINC000070471842    0.4100
52     H52     5.2012  -10.8692   -0.7762 H        1 ZINC000070471842    0.1300
53     H53     7.4647  -11.8182   -0.9193 H        1 ZINC000070471842    0.1400
54     H54     9.4271  -12.7240    1.3152 H        1 ZINC000070471842    0.0700
55     H55     8.7479  -14.3678    1.3850 H        1 ZINC000070471842    0.0700
56     H56     8.9751  -13.5647   -0.1872 H        1 ZINC000070471842    0.0700
57     H57     5.8911  -13.2021    4.6426 H        1 ZINC000070471842    0.0600
58     H58     5.2375  -14.6365    3.8158 H        1 ZINC000070471842    0.0600
59     H59     6.6506  -14.7933    4.8867 H        1 ZINC000070471842    0.1000
60     H60     4.6456  -12.7940    3.0154 H        1 ZINC000070471842    0.1400
61     H61     1.5920   -9.7319    2.3922 H        1 ZINC000070471842    0.1400
62     H62    -0.7305   -8.9196    2.4505 H        1 ZINC000070471842    0.1400
63     H63    -7.3752   -7.7230    0.5902 H        1 ZINC000070471842    0.1200
64     H64    -9.4229   -6.4022    0.5939 H        1 ZINC000070471842    0.1200
65     H65    -9.3420   -3.9561    0.3703 H        1 ZINC000070471842    0.1200
66     H66    -7.2121   -2.7949    0.1405 H        1 ZINC000070471842    0.1200
67     H67    -0.7876   -2.5820   -1.3789 H        1 ZINC000070471842    0.1300
68     H68     0.3128    1.8176   -2.1585 H        1 ZINC000070471842    0.1000
69     H69    -1.4457    1.8141   -1.8829 H        1 ZINC000070471842    0.0500
70     H70    -0.3278    1.7797   -0.4983 H        1 ZINC000070471842    0.0500
71     H71    -2.2946    1.1977   -0.0767 H        1 ZINC000070471842    0.1300
@<TRIPOS>BOND
1     1     2     1
2     1     44    1
3     1     45    1
4     1     46    1
5     2     3     1
6     3     43    ar
7     3     4     ar
8     4     5     ar
9     4     47    1
10    5     6     1
11    5     39    ar
12    6     7     1
13    6     48    1
14    7     38    ar
15    7     8     ar
16    8     9     1
17    8     31    ar
18    9     10    1
19    10    11    2
20    10    12    2
21    10    13    1
22    13    30    ar
23    13    14    ar
24    14    15    ar
25    14    49    1
26    15    16    ar
27    15    50    1
28    16    17    1
29    16    29    ar
30    17    18    am
31    17    51    1
32    18    19    2
33    18    20    1
34    20    28    ar
35    20    21    ar
36    21    22    ar
37    21    52    1
38    22    23    ar
39    22    53    1
40    23    24    1
41    23    25    ar
42    24    54    1
43    24    55    1
44    24    56    1
45    25    26    1
46    25    28    ar
47    26    27    1
48    27    57    1
49    27    58    1
50    27    59    1
51    28    60    1
52    29    30    ar
53    29    61    1
54    30    62    1
55    31    32    ar
56    32    37    ar
57    32    33    ar
58    33    34    ar
59    33    63    1
60    34    35    ar
61    34    64    1
62    35    36    ar
63    35    65    1
64    36    37    ar
65    36    66    1
66    37    38    ar
67    39    40    ar
68    39    67    1
69    40    41    1
70    40    43    ar
71    41    42    1
72    42    68    1
73    42    69    1
74    42    70    1
75    43    71    1
@<TRIPOS>SUBSTRUCTURE
1   ZINC000070471842 1     RESIDUE    1   A     ZIN   1


@<TRIPOS>MOLECULE
CCCCCCCCCCCCCCCCOP(=O)([O-])OCC[N+](C)(C)C
73    72    1     0     0
SMALL
USER_CHARGES
@<TRIPOS>ATOM
1      C1     -0.6362   -0.9560   -2.5761 C.3      1 ZINC000008214614   -0.1500
2      C2     -0.5345   -2.4683   -2.3678 C.3      1 ZINC000008214614   -0.1300
3      C3      0.2069   -2.7544   -1.0604 C.3      1 ZINC000008214614   -0.1200
4      C4      0.3086   -4.2668   -0.8522 C.3      1 ZINC000008214614   -0.1200
5      C5      1.0500   -4.5529    0.4552 C.3      1 ZINC000008214614   -0.1200
6      C6      1.1517   -6.0652    0.6634 C.3      1 ZINC000008214614   -0.1200
7      C7      1.8931   -6.3513    1.9709 C.3      1 ZINC000008214614   -0.1200
8      C8      1.9948   -7.8636    2.1791 C.3      1 ZINC000008214614   -0.1200
9      C9      2.7363   -8.1497    3.4865 C.3      1 ZINC000008214614   -0.1200
10     C10     2.8380   -9.6621    3.6947 C.3      1 ZINC000008214614   -0.1200
11     C11     3.5794   -9.9482    5.0021 C.3      1 ZINC000008214614   -0.1200
12     C12     3.6811  -11.4605    5.2104 C.3      1 ZINC000008214614   -0.1200
13     C13     4.4225  -11.7466    6.5178 C.3      1 ZINC000008214614   -0.1200
14     C14     4.5242  -13.2590    6.7260 C.3      1 ZINC000008214614   -0.1200
15     C15     5.2656  -13.5450    8.0334 C.3      1 ZINC000008214614   -0.1200
16     C16     5.3673  -15.0574    8.2416 C.3      1 ZINC000008214614    0.1300
17     O17     6.0598  -15.3246    9.4628 O.3      1 ZINC000008214614   -0.7700
18     P18     6.3486  -16.8149    9.9990 P.3      1 ZINC000008214614    2.2100
19     O19     5.0187  -17.5961   10.0905 O.co2    1 ZINC000008214614   -1.0900
20     O20     7.3041  -17.5373    9.0232 O.co2    1 ZINC000008214614   -1.0900
21     O21     7.0275  -16.7386   11.4569 O.3      1 ZINC000008214614   -0.7600
22     C22     7.3102  -17.8963   12.2454 C.3      1 ZINC000008214614    0.1000
23     C23     7.9510  -17.4690   13.5674 C.3      1 ZINC000008214614   -0.0100
24     N24     6.9713  -16.7220   14.3675 N.4      1 ZINC000008214614   -0.2700
25     C25     5.7537  -17.5280   14.5280 C.3      1 ZINC000008214614   -0.0600
26     C26     7.5412  -16.4273   15.6891 C.3      1 ZINC000008214614   -0.0400
27     C27     6.6395  -15.4639   13.6858 C.3      1 ZINC000008214614   -0.0400
28     H28     0.3650   -0.5278   -2.6249 H        1 ZINC000008214614    0.0500
29     H29    -1.1644   -0.7522   -3.5075 H        1 ZINC000008214614    0.0500
30     H30    -1.1817   -0.5105   -1.7441 H        1 ZINC000008214614    0.0500
31     H31    -1.5357   -2.8965   -2.3190 H        1 ZINC000008214614    0.0600
32     H32     0.0109   -2.9138   -3.1998 H        1 ZINC000008214614    0.0600
33     H33     1.2081   -2.3263   -1.1093 H        1 ZINC000008214614    0.0600
34     H34    -0.3386   -2.3090   -0.2285 H        1 ZINC000008214614    0.0600
35     H35    -0.6926   -4.6949   -0.8033 H        1 ZINC000008214614    0.0600
36     H36     0.8540   -4.7122   -1.6842 H        1 ZINC000008214614    0.0600
37     H37     2.0512   -4.1247    0.4063 H        1 ZINC000008214614    0.0600
38     H38     0.5046   -4.1074    1.2872 H        1 ZINC000008214614    0.0600
39     H39     0.1505   -6.4934    0.7123 H        1 ZINC000008214614    0.0600
40     H40     1.6971   -6.5107   -0.1685 H        1 ZINC000008214614    0.0600
41     H41     2.8943   -5.9231    1.9220 H        1 ZINC000008214614    0.0600
42     H42     1.3477   -5.9059    2.8028 H        1 ZINC000008214614    0.0600
43     H43     0.9936   -8.2918    2.2280 H        1 ZINC000008214614    0.0600
44     H44     2.5403   -8.3091    1.3471 H        1 ZINC000008214614    0.0600
45     H45     3.7374   -7.7216    3.4376 H        1 ZINC000008214614    0.0600
46     H46     2.1908   -7.7043    4.3185 H        1 ZINC000008214614    0.0600
47     H47     1.8368  -10.0903    3.7436 H        1 ZINC000008214614    0.0600
48     H48     3.3834  -10.1075    2.8627 H        1 ZINC000008214614    0.0600
49     H49     4.5806   -9.5200    4.9533 H        1 ZINC000008214614    0.0600
50     H50     3.0339   -9.5027    5.8341 H        1 ZINC000008214614    0.0600
51     H51     2.6799  -11.8887    5.2592 H        1 ZINC000008214614    0.0600
52     H52     4.2265  -11.9060    4.3784 H        1 ZINC000008214614    0.0600
53     H53     5.4237  -11.3184    6.4689 H        1 ZINC000008214614    0.0600
54     H54     3.8771  -11.3012    7.3498 H        1 ZINC000008214614    0.0600
55     H55     3.5230  -13.6871    6.7749 H        1 ZINC000008214614    0.0700
56     H56     5.0696  -13.7044    5.8940 H        1 ZINC000008214614    0.0700
57     H57     6.2668  -13.1169    7.9845 H        1 ZINC000008214614    0.0700
58     H58     4.7202  -13.0996    8.8654 H        1 ZINC000008214614    0.0700
59     H59     4.3661  -15.4856    8.2905 H        1 ZINC000008214614    0.0500
60     H60     5.9128  -15.5028    7.4097 H        1 ZINC000008214614    0.0500
61     H61     6.3835  -18.4333   12.4477 H        1 ZINC000008214614    0.0800
62     H62     7.9960  -18.5469   11.7027 H        1 ZINC000008214614    0.1000
63     H63     8.2717  -18.3531   14.1183 H        1 ZINC000008214614    0.1400
64     H64     8.8138  -16.8345   13.3645 H        1 ZINC000008214614    0.1300
65     H65     5.9999  -18.4615   15.0339 H        1 ZINC000008214614    0.1200
66     H66     5.0268  -16.9738   15.1217 H        1 ZINC000008214614    0.1200
67     H67     5.3309  -17.7466   13.5474 H        1 ZINC000008214614    0.1300
68     H68     8.4447  -15.8293   15.5700 H        1 ZINC000008214614    0.1200
69     H69     6.8142  -15.8731   16.2828 H        1 ZINC000008214614    0.1200
70     H70     7.7874  -17.3609   16.1950 H        1 ZINC000008214614    0.1200
71     H71     6.0424  -15.6775   12.7992 H        1 ZINC000008214614    0.1400
72     H72     6.0714  -14.8237   14.3607 H        1 ZINC000008214614    0.1100
73     H73     7.5584  -14.9568   13.3914 H        1 ZINC000008214614    0.1200
@<TRIPOS>BOND
1     1     2     1
2     1     28    1
3     1     29    1
4     1     30    1
5     2     3     1
6     2     31    1
7     2     32    1
8     3     4     1
9     3     33    1
10    3     34    1
11    4     5     1
12    4     35    1
13    4     36    1
14    5     6     1
15    5     37    1
16    5     38    1
17    6     7     1
18    6     39    1
19    6     40    1
20    7     8     1
21    7     41    1
22    7     42    1
23    8     9     1
24    8     43    1
25    8     44    1
26    9     10    1
27    9     45    1
28    9     46    1
29    10    11    1
30    10    47    1
31    10    48    1
32    11    12    1
33    11    49    1
34    11    50    1
35    12    13    1
36    12    51    1
37    12    52    1
38    13    14    1
39    13    53    1
40    13    54    1
41    14    15    1
42    14    55    1
43    14    56    1
44    15    16    1
45    15    57    1
46    15    58    1
47    16    17    1
48    16    59    1
49    16    60    1
50    17    18    1
51    18    19    ar
52    18    20    ar
53    18    21    1
54    21    22    1
55    22    23    1
56    22    61    1
57    22    62    1
58    23    24    1
59    23    63    1
60    23    64    1
61    24    25    1
62    24    26    1
63    24    27    1
64    25    65    1
65    25    66    1
66    25    67    1
67    26    68    1
68    26    69    1
69    26    70    1
70    27    71    1
71    27    72    1
72    27    73    1
@<TRIPOS>SUBSTRUCTURE
1   ZINC000008214614 1     RESIDUE    1   A     ZIN   1


@<TRIPOS>MOLECULE
CC1=CC=C(C=C1)S(=O)(=O)NC2=NC3=CC=CC=C3N=C2NC4=CC5=NSN=C5C=C4
46    50    1     0     0
SMALL
USER_CHARGES
@<TRIPOS>ATOM
1      C1      0.0765    1.4335   -1.3912 C.3      1 ZINC000002267166   -0.1200
2      C2      0.0850   -0.0646   -1.2278 C.ar     1 ZINC000002267166   -0.0500
3      C3      0.2440   -0.8795   -2.3330 C.ar     1 ZINC000002267166   -0.1500
4      C4      0.2518   -2.2537   -2.1831 C.ar     1 ZINC000002267166   -0.0200
5      C5      0.1011   -2.8129   -0.9279 C.ar     1 ZINC000002267166   -0.6300
6      S6      0.1104   -4.5645   -0.7369 S.o2     1 ZINC000002267166    2.6400
7      O7     -0.5885   -4.8404    0.4692 O.2      1 ZINC000002267166   -1.0100
8      O8     -0.2662   -5.1073   -1.9950 O.2      1 ZINC000002267166   -1.0100
9      N9      1.6816   -5.0214   -0.4819 N.pl3    1 ZINC000002267166   -1.0700
10     C10     1.9930   -6.3599   -0.2962 C.ar     1 ZINC000002267166    0.4200
11     C11     3.3366   -6.7450   -0.0728 C.ar     1 ZINC000002267166    0.3600
12     N12     4.3338   -5.7810   -0.0406 N.pl3    1 ZINC000002267166   -0.6300
13     C13     5.6736   -6.1649    0.0613 C.ar     1 ZINC000002267166    0.2000
14     C14     6.0840   -7.3169   -0.5374 C.ar     1 ZINC000002267166   -0.1000
15     C15     7.4396   -7.7173   -0.4416 C.ar     1 ZINC000002267166    0.1100
16     N16     8.0677   -8.7759   -0.9283 N.2      1 ZINC000002267166   -0.6000
17     S17     9.5672   -8.7210   -0.5187 S.3      1 ZINC000002267166    0.7500
18     N18     9.5829   -7.3943    0.2928 N.2      1 ZINC000002267166   -0.5900
19     C19     8.3671   -6.8717    0.3059 C.ar     1 ZINC000002267166    0.0600
20     C20     7.8728   -5.6848    0.9048 C.ar     1 ZINC000002267166   -0.0600
21     C21     6.5671   -5.3531    0.7727 C.ar     1 ZINC000002267166   -0.1000
22     N22     3.6459   -8.0129    0.1051 N.ar     1 ZINC000002267166   -0.4900
23     C23     2.6819   -8.9445    0.0744 C.ar     1 ZINC000002267166    0.0400
24     C24     2.9862  -10.3025    0.2619 C.ar     1 ZINC000002267166   -0.0700
25     C25     1.9891  -11.2299    0.2267 C.ar     1 ZINC000002267166   -0.1500
26     C26     0.6676  -10.8510    0.0063 C.ar     1 ZINC000002267166   -0.1100
27     C27     0.3365   -9.5428   -0.1794 C.ar     1 ZINC000002267166   -0.1100
28     C28     1.3381   -8.5593   -0.1491 C.ar     1 ZINC000002267166    0.1200
29     N29     1.0361   -7.2643   -0.3234 N.ar     1 ZINC000002267166   -0.5700
30     C30    -0.0565   -1.9980    0.1775 C.ar     1 ZINC000002267166   -0.0200
31     C31    -0.0605   -0.6237    0.0281 C.ar     1 ZINC000002267166   -0.1500
32     H32     1.0941    1.8143   -1.3037 H        1 ZINC000002267166    0.0700
33     H33    -0.3242    1.6898   -2.3719 H        1 ZINC000002267166    0.0700
34     H34    -0.5464    1.8800   -0.6161 H        1 ZINC000002267166    0.0700
35     H35     0.3617   -0.4426   -3.3136 H        1 ZINC000002267166    0.1300
36     H36     0.3753   -2.8904   -3.0467 H        1 ZINC000002267166    0.1400
37     H37     4.1010   -4.8406   -0.0889 H        1 ZINC000002267166    0.4300
38     H38     5.3776   -7.9242   -1.0838 H        1 ZINC000002267166    0.1500
39     H39     8.5392   -5.0434    1.4624 H        1 ZINC000002267166    0.1400
40     H40     6.2038   -4.4466    1.2339 H        1 ZINC000002267166    0.1400
41     H41     4.0071  -10.6105    0.4330 H        1 ZINC000002267166    0.1200
42     H42     2.2270  -12.2734    0.3713 H        1 ZINC000002267166    0.1200
43     H43    -0.1056  -11.6047   -0.0181 H        1 ZINC000002267166    0.1200
44     H44    -0.6927   -9.2630   -0.3494 H        1 ZINC000002267166    0.1200
45     H45    -0.1739   -2.4349    1.1582 H        1 ZINC000002267166    0.1400
46     H46    -0.1836    0.0130    0.8917 H        1 ZINC000002267166    0.1300
@<TRIPOS>BOND
1     1     2     1
2     1     32    1
3     1     33    1
4     1     34    1
5     2     31    ar
6     2     3     ar
7     3     4     ar
8     3     35    1
9     4     5     ar
10    4     36    1
11    5     6     1
12    5     30    ar
13    6     7     2
14    6     8     2
15    6     9     1
16    9     10    1
17    10    29    ar
18    10    11    ar
19    11    12    1
20    11    22    ar
21    12    13    1
22    12    37    1
23    13    21    ar
24    13    14    ar
25    14    15    ar
26    14    38    1
27    15    19    ar
28    15    16    2
29    16    17    1
30    17    18    1
31    18    19    2
32    19    20    ar
33    20    21    ar
34    20    39    1
35    21    40    1
36    22    23    ar
37    23    28    ar
38    23    24    ar
39    24    25    ar
40    24    41    1
41    25    26    ar
42    25    42    1
43    26    27    ar
44    26    43    1
45    27    28    ar
46    27    44    1
47    28    29    ar
48    30    31    ar
49    30    45    1
50    31    46    1
@<TRIPOS>SUBSTRUCTURE
1   ZINC000002267166 1     RESIDUE    1   A     ZIN   1


@<TRIPOS>MOLECULE
CC(C1=CC2=C(C(=CC=C2)Cl)C(=O)N1C3=CC=CC=C3)NC4=NC=NC5=C4NC=N5
47    51    1     0     0
SMALL
USER_CHARGES
@<TRIPOS>ATOM
1      C1     -0.0250   -0.5254   -0.7613 C.3      1 ZINC000088346058   -0.2000
2      C2     -0.3584   -0.6572    0.7261 C.3      1 ZINC000088346058    0.1800
3      H3     -0.0888   -1.6552    1.0718 H        1 ZINC000088346058    0.1200
4      N4     -1.7937   -0.4425    0.9258 N.pl3    1 ZINC000088346058   -0.6800
5      C5     -2.7064   -0.9948    0.0416 C.ar     1 ZINC000088346058    0.4500
6      C6     -4.0772   -0.7952    0.2138 C.ar     1 ZINC000088346058   -0.0800
7      N7     -4.8624   -0.1232    1.1267 N.pl3    1 ZINC000088346058   -0.5700
8      C8     -6.1498   -0.3023    0.7541 C.2      1 ZINC000088346058    0.3100
9      N9     -6.2071   -1.0362   -0.3221 N.2      1 ZINC000088346058   -0.4900
10     C10    -4.9631   -1.3752   -0.7094 C.ar     1 ZINC000088346058    0.3200
11     N11    -4.4587   -2.0950   -1.7165 N.ar     1 ZINC000088346058   -0.5000
12     C12    -3.1595   -2.2556   -1.8385 C.ar     1 ZINC000088346058    0.3300
13     N13    -2.2957   -1.7226   -0.9938 N.ar     1 ZINC000088346058   -0.5500
14     C14     0.4170    0.3717    1.5078 C.2      1 ZINC000088346058    0.1200
15     C15     1.6728    0.0851    1.8868 C.2      1 ZINC000088346058   -0.1700
16     C16     2.4387    1.0751    2.6464 C.ar     1 ZINC000088346058    0.0100
17     C17     3.7468    0.8326    3.0660 C.ar     1 ZINC000088346058   -0.1200
18     C18     4.4226    1.7991    3.7779 C.ar     1 ZINC000088346058   -0.0700
19     C19     3.8170    3.0107    4.0823 C.ar     1 ZINC000088346058   -0.1300
20     C20     2.5247    3.2736    3.6788 C.ar     1 ZINC000088346058    0.0300
21     Cl21    1.7795    4.7929    4.0662 Cl       1 ZINC000088346058   -0.0300
22     C22     1.8207    2.3093    2.9559 C.ar     1 ZINC000088346058   -0.1500
23     C23     0.4450    2.5318    2.5004 C.2      1 ZINC000088346058    0.5400
24     O24    -0.1231    3.5807    2.7465 O.2      1 ZINC000088346058   -0.4800
25     N25    -0.1817    1.5653    1.8007 N.am     1 ZINC000088346058   -0.4500
26     C26    -1.4952    1.7866    1.3692 C.ar     1 ZINC000088346058   -0.0200
27     C27    -2.3486    2.5855    2.1189 C.ar     1 ZINC000088346058   -0.0600
28     C28    -3.6435    2.8023    1.6904 C.ar     1 ZINC000088346058   -0.1900
29     C29    -4.0905    2.2247    0.5162 C.ar     1 ZINC000088346058   -0.0700
30     C30    -3.2432    1.4287   -0.2327 C.ar     1 ZINC000088346058   -0.2200
31     C31    -1.9456    1.2123    0.1877 C.ar     1 ZINC000088346058   -0.0100
32     H32     0.7994   -1.1938   -1.0095 H        1 ZINC000088346058    0.0900
33     H33    -0.8998   -0.7915   -1.3547 H        1 ZINC000088346058    0.1400
34     H34     0.2628    0.5031   -0.9794 H        1 ZINC000088346058    0.0600
35     H35    -2.1051    0.0863    1.6770 H        1 ZINC000088346058    0.4300
36     H36    -4.5497    0.3828    1.8929 H        1 ZINC000088346058    0.4300
37     H37    -7.0059    0.1036    1.2725 H        1 ZINC000088346058    0.2300
38     H38    -2.7842   -2.8429   -2.6635 H        1 ZINC000088346058    0.2100
39     H39     2.1141   -0.8676    1.6338 H        1 ZINC000088346058    0.1600
40     H40     4.2265   -0.1069    2.8344 H        1 ZINC000088346058    0.1400
41     H41     5.4352    1.6120    4.1034 H        1 ZINC000088346058    0.1400
42     H42     4.3638    3.7555    4.6415 H        1 ZINC000088346058    0.1400
43     H43    -2.0001    3.0366    3.0363 H        1 ZINC000088346058    0.1400
44     H44    -4.3078    3.4232    2.2732 H        1 ZINC000088346058    0.1300
45     H45    -5.1037    2.3954    0.1834 H        1 ZINC000088346058    0.1200
46     H46    -3.5954    0.9790   -1.1493 H        1 ZINC000088346058    0.1200
47     H47    -1.2842    0.5908   -0.3977 H        1 ZINC000088346058    0.1600
@<TRIPOS>BOND
1     1     2     1
2     1     32    1
3     1     33    1
4     1     34    1
5     2     3     1
6     2     4     1
7     2     14    1
8     4     5     1
9     4     35    1
10    5     13    ar
11    5     6     ar
12    6     10    ar
13    6     7     1
14    7     8     1
15    7     36    1
16    8     9     2
17    8     37    1
18    9     10    1
19    10    11    ar
20    11    12    ar
21    12    13    ar
22    12    38    1
23    14    25    1
24    14    15    2
25    15    16    1
26    15    39    1
27    16    22    ar
28    16    17    ar
29    17    18    ar
30    17    40    1
31    18    19    ar
32    18    41    1
33    19    20    ar
34    19    42    1
35    20    21    1
36    20    22    ar
37    22    23    1
38    23    24    2
39    23    25    am
40    25    26    1
41    26    31    ar
42    26    27    ar
43    27    28    ar
44    27    43    1
45    28    29    ar
46    28    44    1
47    29    30    ar
48    29    45    1
49    30    31    ar
50    30    46    1
51    31    47    1
@<TRIPOS>SUBSTRUCTURE
1   ZINC000088346058 1     RESIDUE    1   A     ZIN   1


@<TRIPOS>MOLECULE
CN1C(=C(C=N1)Cl)C2=C(OC(=C2)C(=O)NC(CC3=CC(=C(C=C3)F)F)CN)Cl
45    47    1     0     0
SMALL
USER_CHARGES
@<TRIPOS>ATOM
1      C1     -0.0178    1.4608    0.0101 C.3      1 ZINC000043197676    0.1000
2      N2      0.0021   -0.0041    0.0020 N.pl3    1 ZINC000043197676   -0.3500
3      N3      0.0086   -0.8237   -1.1338 N.2      1 ZINC000043197676   -0.2600
4      C4      0.0271   -2.0733   -0.7448 C.2      1 ZINC000043197676    0.0700
5      C5      0.0332   -2.1047    0.6509 C.2      1 ZINC000043197676   -0.1500
6      Cl6     0.0571   -3.5302    1.6414 Cl       1 ZINC000043197676   -0.0300
7      C7      0.0235   -0.8137    1.0986 C.2      1 ZINC000043197676    0.1400
8      C8      0.0254   -0.3754    2.5129 C.2      1 ZINC000043197676   -0.1100
9      C9      1.1231   -0.1189    3.2856 C.2      1 ZINC000043197676    0.1100
10     Cl10    2.7767   -0.2517    2.7740 Cl       1 ZINC000043197676    0.0800
11     O11     0.7088    0.2520    4.5035 O.3      1 ZINC000043197676   -0.1500
12     C12    -0.6401    0.2444    4.5464 C.2      1 ZINC000043197676   -0.1000
13     C13    -1.4629    0.5924    5.7085 C.2      1 ZINC000043197676    0.6100
14     O14    -2.6767    0.5495    5.6296 O.2      1 ZINC000043197676   -0.5200
15     N15    -0.8754    0.9600    6.8644 N.am     1 ZINC000043197676   -0.7300
16     C16    -1.6977    1.3078    8.0259 C.3      1 ZINC000043197676    0.1200
17     H17    -2.5897    0.6815    8.0402 H        1 ZINC000043197676    0.1300
18     C18    -2.1089    2.7789    7.9375 C.3      1 ZINC000043197676   -0.0200
19     N19    -2.7768    3.0243    6.6523 N.4      1 ZINC000043197676   -0.6400
20     H20    -3.5971    2.4410    6.5828 H        1 ZINC000043197676    0.4400
21     H21    -3.0479    3.9944    6.5940 H        1 ZINC000043197676    0.4400
22     H22    -2.1439    2.8059    5.8973 H        1 ZINC000043197676    0.4300
23     C23    -0.8934    1.0792    9.3072 C.3      1 ZINC000043197676   -0.0800
24     C24    -0.5936   -0.3901    9.4566 C.ar     1 ZINC000043197676   -0.0900
25     C25    -1.4772   -1.2096   10.1334 C.ar     1 ZINC000043197676   -0.0900
26     C26    -1.2043   -2.5579   10.2718 C.ar     1 ZINC000043197676   -0.1200
27     C27    -0.0458   -3.0882    9.7322 C.ar     1 ZINC000043197676    0.0800
28     F28     0.2214   -4.4057    9.8666 F        1 ZINC000043197676   -0.1200
29     C29     0.8406   -2.2660    9.0527 C.ar     1 ZINC000043197676    0.0800
30     F30     1.9724   -2.7816    8.5250 F        1 ZINC000043197676   -0.1200
31     C31     0.5623   -0.9179    8.9117 C.ar     1 ZINC000043197676   -0.1200
32     C32    -1.1076   -0.1355    3.3230 C.2      1 ZINC000043197676   -0.0500
33     H33     1.0048    1.8381    0.0023 H        1 ZINC000043197676    0.0800
34     H34    -0.5450    1.8219   -0.8730 H        1 ZINC000043197676    0.1000
35     H35    -0.5280    1.8123    0.9069 H        1 ZINC000043197676    0.0800
36     H36     0.0356   -2.9358   -1.3948 H        1 ZINC000043197676    0.2000
37     H37     0.0920    0.9942    6.9274 H        1 ZINC000043197676    0.4200
38     H38    -2.7925    3.0147    8.7530 H        1 ZINC000043197676    0.1500
39     H39    -1.2227    3.4090    8.0125 H        1 ZINC000043197676    0.1400
40     H40     0.0414    1.6372    9.2537 H        1 ZINC000043197676    0.1000
41     H41    -1.4721    1.4211   10.1653 H        1 ZINC000043197676    0.1100
42     H42    -2.3816   -0.7962   10.5548 H        1 ZINC000043197676    0.1400
43     H43    -1.8952   -3.1970   10.8015 H        1 ZINC000043197676    0.1500
44     H44     1.2515   -0.2766    8.3825 H        1 ZINC000043197676    0.1400
45     H45    -2.1424   -0.2398    3.0319 H        1 ZINC000043197676    0.1800
@<TRIPOS>BOND
1     1     2     1
2     1     33    1
3     1     34    1
4     1     35    1
5     2     7     1
6     2     3     1
7     3     4     2
8     4     5     1
9     4     36    1
10    5     6     1
11    5     7     2
12    7     8     1
13    8     32    1
14    8     9     2
15    9     10    1
16    9     11    1
17    11    12    1
18    12    13    1
19    12    32    2
20    13    14    2
21    13    15    am
22    15    16    1
23    15    37    1
24    16    17    1
25    16    18    1
26    16    23    1
27    18    19    1
28    18    38    1
29    18    39    1
30    19    20    1
31    19    21    1
32    19    22    1
33    23    24    1
34    23    40    1
35    23    41    1
36    24    31    ar
37    24    25    ar
38    25    26    ar
39    25    42    1
40    26    27    ar
41    26    43    1
42    27    28    1
43    27    29    ar
44    29    30    1
45    29    31    ar
46    31    44    1
47    32    45    1
@<TRIPOS>SUBSTRUCTURE
1   ZINC000043197676 1     RESIDUE    1   A     ZIN   1


@<TRIPOS>MOLECULE
CC1=C(SC(=N1)NC(=O)N2CCCC2C(=O)N)C3=CC(=NC=C3)C(C)(C)C(F)(F)F
52    54    1     0     0
SMALL
USER_CHARGES
@<TRIPOS>ATOM
1      C1      0.0940    1.5020   -0.0010 C.3      1 ZINC000068198368   -0.0800
2      C2      0.0512   -0.0044   -0.0029 C.2      1 ZINC000068198368    0.1400
3      C3     -0.0923   -0.7315   -1.1313 C.2      1 ZINC000068198368   -0.2400
4      C4     -0.2267   -0.1940   -2.4997 C.ar     1 ZINC000068198368    0.0500
5      C5      0.6436    0.7965   -2.9730 C.ar     1 ZINC000068198368   -0.1500
6      C6      0.4820    1.2693   -4.2576 C.ar     1 ZINC000068198368    0.1100
7      N7     -0.4753    0.8016   -5.0368 N.ar     1 ZINC000068198368   -0.4600
8      C8     -1.3167   -0.1313   -4.6309 C.ar     1 ZINC000068198368    0.1300
9      C9     -2.3885   -0.6243   -5.5685 C.3      1 ZINC000068198368   -0.0500
10     C10    -2.5241    0.3462   -6.7435 C.3      1 ZINC000068198368   -0.1300
11     C11    -2.0089   -2.0105   -6.0932 C.3      1 ZINC000068198368   -0.1500
12     C12    -3.7207   -0.7092   -4.8208 C.3      1 ZINC000068198368    0.4600
13     F13    -4.0678    0.5583   -4.3411 F        1 ZINC000068198368   -0.1800
14     F14    -4.7157   -1.1669   -5.6913 F        1 ZINC000068198368   -0.1700
15     F15    -3.5967   -1.5966   -3.7464 F        1 ZINC000068198368   -0.1800
16     C16    -1.2247   -0.6645   -3.3636 C.ar     1 ZINC000068198368   -0.1700
17     S17    -0.0910   -2.4351   -0.6823 S.3      1 ZINC000068198368    0.1600
18     C18     0.1005   -2.0128    0.9631 C.2      1 ZINC000068198368    0.3000
19     N19     0.1894   -2.9199    2.0092 N.am     1 ZINC000068198368   -0.6400
20     C20     0.3398   -2.4779    3.2735 C.2      1 ZINC000068198368    0.7200
21     O21     0.3976   -1.2843    3.4973 O.2      1 ZINC000068198368   -0.5100
22     N22     0.4261   -3.3590    4.2897 N.am     1 ZINC000068198368   -0.6100
23     C23     0.3774   -4.8268    4.1606 C.3      1 ZINC000068198368    0.0900
24     C24     1.1138   -5.3598    5.4150 C.3      1 ZINC000068198368   -0.1300
25     C25     0.6646   -4.3416    6.4961 C.3      1 ZINC000068198368   -0.1200
26     C26     0.5907   -3.0158    5.7098 C.3      1 ZINC000068198368    0.1400
27     H27    -0.2660   -2.4322    6.0467 H        1 ZINC000068198368    0.1000
28     C28     1.8592   -2.2280    5.9132 C.2      1 ZINC000068198368    0.5100
29     N29     2.0310   -1.5061    7.0383 N.am     1 ZINC000068198368   -0.8500
30     O30     2.7254   -2.2434    5.0644 O.2      1 ZINC000068198368   -0.5200
31     N31     0.1561   -0.7222    1.0936 N.2      1 ZINC000068198368   -0.4700
32     H32     1.1099    1.8368   -0.2106 H        1 ZINC000068198368    0.0800
33     H33    -0.5802    1.8856   -0.7668 H        1 ZINC000068198368    0.0800
34     H34    -0.2166    1.8731    0.9756 H        1 ZINC000068198368    0.0800
35     H35     1.4289    1.1840   -2.3409 H        1 ZINC000068198368    0.1400
36     H36     1.1476    2.0331   -4.6317 H        1 ZINC000068198368    0.1700
37     H37    -1.5750    0.4066   -7.2762 H        1 ZINC000068198368    0.0900
38     H38    -3.2993   -0.0105   -7.4217 H        1 ZINC000068198368    0.0700
39     H39    -2.7945    1.3337   -6.3698 H        1 ZINC000068198368    0.0700
40     H40    -1.9123   -2.7019   -5.2561 H        1 ZINC000068198368    0.0700
41     H41    -2.7842   -2.3672   -6.7714 H        1 ZINC000068198368    0.0800
42     H42    -1.0599   -1.9501   -6.6258 H        1 ZINC000068198368    0.0800
43     H43    -1.9163   -1.4277   -3.0384 H        1 ZINC000068198368    0.1500
44     H44     0.1432   -3.8722    1.8306 H        1 ZINC000068198368    0.4200
45     H45    -0.6562   -5.1728    4.1519 H        1 ZINC000068198368    0.0800
46     H46     0.8926   -5.1452    3.2544 H        1 ZINC000068198368    0.0800
47     H47     0.7810   -6.3672    5.6648 H        1 ZINC000068198368    0.0900
48     H48     2.1944   -5.3304    5.2756 H        1 ZINC000068198368    0.0800
49     H49    -0.3124   -4.6110    6.8974 H        1 ZINC000068198368    0.1000
50     H50     1.4048   -4.2737    7.2933 H        1 ZINC000068198368    0.0900
51     H51     1.3383   -1.4938    7.7172 H        1 ZINC000068198368    0.4000
52     H52     2.8475   -0.9990    7.1693 H        1 ZINC000068198368    0.4000
@<TRIPOS>BOND
1     1     2     1
2     1     32    1
3     1     33    1
4     1     34    1
5     2     31    1
6     2     3     2
7     3     4     1
8     3     17    1
9     4     16    ar
10    4     5     ar
11    5     6     ar
12    5     35    1
13    6     7     ar
14    6     36    1
15    7     8     ar
16    8     9     1
17    8     16    ar
18    9     10    1
19    9     11    1
20    9     12    1
21    10    37    1
22    10    38    1
23    10    39    1
24    11    40    1
25    11    41    1
26    11    42    1
27    12    13    1
28    12    14    1
29    12    15    1
30    16    43    1
31    17    18    1
32    18    19    1
33    18    31    2
34    19    20    am
35    19    44    1
36    20    21    2
37    20    22    am
38    22    26    1
39    22    23    1
40    23    24    1
41    23    45    1
42    23    46    1
43    24    25    1
44    24    47    1
45    24    48    1
46    25    26    1
47    25    49    1
48    25    50    1
49    26    27    1
50    26    28    1
51    28    29    am
52    28    30    2
53    29    51    1
54    29    52    1
@<TRIPOS>SUBSTRUCTURE
1   ZINC000068198368 1     RESIDUE    1   A     ZIN   1


@<TRIPOS>MOLECULE
CCC(C1=NC2=C(C(=CC=C2)F)C(=O)N1C3=CC=CC=C3)NC4=NC=NC5=C4NC=N5
49    53    1     0     0
SMALL
USER_CHARGES
@<TRIPOS>ATOM
1      C1      0.3042    0.3193    2.3445 C.3      1 ZINC000013986658   -0.1400
2      C2      0.4079   -1.0392    1.6484 C.3      1 ZINC000013986658   -0.1300
3      C3      0.5351   -0.8301    0.1381 C.3      1 ZINC000013986658    0.2100
4      H4      1.3784   -0.1708   -0.0676 H        1 ZINC000013986658    0.1300
5      N5     -0.6955   -0.2240   -0.3763 N.pl3    1 ZINC000013986658   -0.7000
6      C6     -0.8608    1.1510   -0.3338 C.ar     1 ZINC000013986658    0.4800
7      C7     -2.0294    1.7444   -0.8143 C.ar     1 ZINC000013986658   -0.1200
8      N8     -3.1977    1.2858   -1.3855 N.pl3    1 ZINC000013986658   -0.5700
9      C9     -3.9674    2.3673   -1.6429 C.2      1 ZINC000013986658    0.3000
10     N10    -3.3521    3.4546   -1.2694 N.2      1 ZINC000013986658   -0.4900
11     C11    -2.1502    3.1424   -0.7492 C.ar     1 ZINC000013986658    0.3200
12     N12    -1.1419    3.8495   -0.2294 N.ar     1 ZINC000013986658   -0.5200
13     C13    -0.0599    3.2465    0.2112 C.ar     1 ZINC000013986658    0.3400
14     N14     0.0885    1.9349    0.1709 N.ar     1 ZINC000013986658   -0.5700
15     C15     0.7603   -2.1591   -0.5358 C.2      1 ZINC000013986658    0.4100
16     N16    -0.2750   -2.8886   -0.8212 N.2      1 ZINC000013986658   -0.5200
17     C17    -0.1488   -4.0957   -1.4277 C.ar     1 ZINC000013986658    0.1800
18     C18    -1.2611   -4.8801   -1.7351 C.ar     1 ZINC000013986658   -0.1200
19     C19    -1.0882   -6.1000   -2.3518 C.ar     1 ZINC000013986658   -0.0400
20     C20     0.1798   -6.5620   -2.6728 C.ar     1 ZINC000013986658   -0.1700
21     C21     1.2975   -5.8054   -2.3790 C.ar     1 ZINC000013986658    0.1800
22     F22     2.5300   -6.2603   -2.6940 F        1 ZINC000013986658   -0.1100
23     C23     1.1430   -4.5667   -1.7549 C.ar     1 ZINC000013986658   -0.2400
24     C24     2.2931   -3.7177   -1.4183 C.2      1 ZINC000013986658    0.5500
25     O25     3.4317   -4.0654   -1.6730 O.2      1 ZINC000013986658   -0.4700
26     N26     2.0381   -2.5311   -0.8193 N.am     1 ZINC000013986658   -0.4900
27     C27     3.0997   -1.6837   -0.4779 C.ar     1 ZINC000013986658    0.0900
28     C28     3.5371   -0.7197   -1.3766 C.ar     1 ZINC000013986658   -0.1000
29     C29     4.5838    0.1148   -1.0367 C.ar     1 ZINC000013986658   -0.1000
30     C30     5.1961   -0.0089    0.1970 C.ar     1 ZINC000013986658   -0.0900
31     C31     4.7631   -0.9682    1.0939 C.ar     1 ZINC000013986658   -0.1000
32     C32     3.7131   -1.8019    0.7623 C.ar     1 ZINC000013986658   -0.1000
33     H33     1.1986    0.9052    2.1328 H        1 ZINC000013986658    0.0700
34     H34    -0.5736    0.8503    1.9760 H        1 ZINC000013986658    0.0500
35     H35     0.2136    0.1703    3.4204 H        1 ZINC000013986658    0.0500
36     H36     1.2857   -1.5702    2.0169 H        1 ZINC000013986658    0.0700
37     H37    -0.4865   -1.6251    1.8600 H        1 ZINC000013986658    0.0700
38     H38    -1.3945   -0.7854   -0.7466 H        1 ZINC000013986658    0.4200
39     H39    -3.4247    0.3607   -1.5686 H        1 ZINC000013986658    0.4300
40     H40    -4.9488    2.3352   -2.0924 H        1 ZINC000013986658    0.2300
41     H41     0.7367    3.8467    0.6254 H        1 ZINC000013986658    0.2000
42     H42    -2.2539   -4.5324   -1.4903 H        1 ZINC000013986658    0.1500
43     H43    -1.9513   -6.7048   -2.5880 H        1 ZINC000013986658    0.1500
44     H44     0.2940   -7.5211   -3.1560 H        1 ZINC000013986658    0.1500
45     H45     3.0595   -0.6228   -2.3404 H        1 ZINC000013986658    0.1300
46     H46     4.9247    0.8645   -1.7354 H        1 ZINC000013986658    0.1400
47     H47     6.0144    0.6448    0.4604 H        1 ZINC000013986658    0.1300
48     H48     5.2438   -1.0628    2.0564 H        1 ZINC000013986658    0.1400
49     H49     3.3751   -2.5506    1.4634 H        1 ZINC000013986658    0.1300
@<TRIPOS>BOND
1     1     2     1
2     1     33    1
3     1     34    1
4     1     35    1
5     2     3     1
6     2     36    1
7     2     37    1
8     3     4     1
9     3     5     1
10    3     15    1
11    5     6     1
12    5     38    1
13    6     14    ar
14    6     7     ar
15    7     11    ar
16    7     8     1
17    8     9     1
18    8     39    1
19    9     10    2
20    9     40    1
21    10    11    1
22    11    12    ar
23    12    13    ar
24    13    14    ar
25    13    41    1
26    15    26    1
27    15    16    2
28    16    17    1
29    17    23    ar
30    17    18    ar
31    18    19    ar
32    18    42    1
33    19    20    ar
34    19    43    1
35    20    21    ar
36    20    44    1
37    21    22    1
38    21    23    ar
39    23    24    1
40    24    25    2
41    24    26    am
42    26    27    1
43    27    32    ar
44    27    28    ar
45    28    29    ar
46    28    45    1
47    29    30    ar
48    29    46    1
49    30    31    ar
50    30    47    1
51    31    32    ar
52    31    48    1
53    32    49    1
@<TRIPOS>SUBSTRUCTURE
1   ZINC000013986658 1     RESIDUE    1   A     ZIN   1


@<TRIPOS>MOLECULE
CN1C2=NC=NC3=C2C(=CN3C4C(C(C(O4)CO)O)O)C(=N1)N
  40   43    0    0    0
SMALL
USER_CHARGES
NO_NAME
@<TRIPOS>ATOM
    1 C1       -0.0178     1.4608     0.0101 C.3    1 <0>       0.0900
    2 N2        0.0021    -0.0041     0.0020 N.pl3  1 <0>      -0.3900
    3 N3        0.0056    -0.6906    -1.2204 N.pl3  1 <0>      -0.4000
    4 H4       -0.0049    -0.1590    -2.0317 H      1 <0>       0.4500
    5 C5        0.0224    -1.9933    -1.3528 C.cat  1 <0>       0.6200
    6 N6        0.0253    -2.5801    -2.6138 N.pl3  1 <0>      -0.7800
    7 C7        0.0387    -2.8237    -0.1347 C.2    1 <0>      -0.2300
    8 C8        0.0568    -4.1121     0.2556 C.2    1 <0>       0.2100
    9 N9        0.0641    -4.1853     1.6390 N.pl3  1 <0>      -0.4400
   10 C10       0.0834    -5.4337     2.4054 C.3    1 <0>       0.3000
   11 H11       0.6821    -5.3187     3.3090 H      1 <0>       0.1400
   12 O12       0.5865    -6.5189     1.5969 O.3    1 <0>      -0.3500
   13 C13       0.1157    -7.7394     2.1928 C.3    1 <0>       0.0500
   14 H14       0.8609    -8.1232     2.8895 H      1 <0>       0.1100
   15 C15      -0.1609    -8.7773     1.1033 C.3    1 <0>       0.0800
   16 O16       1.0686    -9.1513     0.4785 O.3    1 <0>      -0.5600
   17 C17      -1.1861    -7.4081     2.9479 C.3    1 <0>       0.0500
   18 H18      -2.0279    -7.9452     2.5109 H      1 <0>       0.0900
   19 O19      -1.0555    -7.7283     4.3344 O.3    1 <0>      -0.5400
   20 C20      -1.3583    -5.8794     2.7590 C.3    1 <0>       0.0800
   21 H21      -2.0418    -5.6635     1.9379 H      1 <0>       0.0900
   22 O22      -1.8068    -5.2635     3.9680 O.3    1 <0>      -0.5200
   23 C23       0.0508    -2.9377     2.1912 C.ar   1 <0>       0.4000
   24 N24       0.0493    -2.3363     3.3850 N.ar   1 <0>      -0.5100
   25 C25       0.0327    -1.0173     3.4564 C.ar   1 <0>       0.3800
   26 N26       0.0162    -0.1853     2.4196 N.ar   1 <0>      -0.5400
   27 C27       0.0227    -0.6887     1.1907 C.ar   1 <0>       0.4800
   28 C28       0.0345    -2.0695     1.1165 C.ar   1 <0>      -0.2800
   29 H29       1.0048     1.8381     0.0023 H      1 <0>       0.0900
   30 H30      -0.5450     1.8219    -0.8730 H      1 <0>       0.0900
   31 H31      -0.5280     1.8123     0.9069 H      1 <0>       0.1300
   32 H32       0.0148    -2.0232    -3.4079 H      1 <0>       0.4300
   33 H33       0.0378    -3.5463    -2.6991 H      1 <0>       0.4500
   34 H34       0.0642    -4.9621    -0.4106 H      1 <0>       0.2100
   35 H35      -0.6243    -9.6574     1.5491 H      1 <0>       0.0700
   36 H36      -0.8325    -8.3514     0.3578 H      1 <0>       0.0600
   37 H37       0.9689    -9.8082    -0.2241 H      1 <0>       0.3900
   38 H38      -0.8882    -8.6648     4.5077 H      1 <0>       0.3900
   39 H39      -2.6674    -5.5800     4.2749 H      1 <0>       0.4000
   40 H40       0.0320    -0.5767     4.4425 H      1 <0>       0.2200
@<TRIPOS>BOND
   1    1    2 1
   2    1   29 1
   3    1   30 1
   4    1   31 1
   5    2   27 1
   6    2    3 1
   7    3    4 1
   8    3    5 ar
   9    5    6 ar
  10    5    7 1
  11    6   32 1
  12    6   33 1
  13    7   28 1
  14    7    8 2
  15    8    9 1
  16    8   34 1
  17    9   10 1
  18    9   23 1
  19   10   11 1
  20   10   20 1
  21   10   12 1
  22   12   13 1
  23   13   14 1
  24   13   15 1
  25   13   17 1
  26   15   16 1
  27   15   35 1
  28   15   36 1
  29   16   37 1
  30   17   18 1
  31   17   19 1
  32   17   20 1
  33   19   38 1
  34   20   21 1
  35   20   22 1
  36   22   39 1
  37   23   28 ar
  38   23   24 ar
  39   24   25 ar
  40   25   26 ar
  41   25   40 1
  42   26   27 ar
  43   27   28 ar


@<TRIPOS>MOLECULE
CS(=O)(=O)N1CCN(CC1)CC2=CC3=C(S2)C(=NC(=N3)C4=C5C=NNC5=CC=C4)N6CCOCC6
62    67    1     0     0
SMALL
USER_CHARGES
@<TRIPOS>ATOM
1      C1     -0.0225    1.8097    0.0120 C.3      1 ZINC000016052714   -0.6700
2      S2      0.0021   -0.0041    0.0020 S.o2     1 ZINC000016052714    2.6100
3      O3      0.8448   -0.4970    1.0346 O.2      1 ZINC000016052714   -0.9500
4      O4     -1.3093   -0.5195   -0.1821 O.2      1 ZINC000016052714   -0.9500
5      N5      0.7961   -0.3989   -1.3965 N.am     1 ZINC000016052714   -1.0000
6      C6      0.0597   -0.5844   -2.6561 C.3      1 ZINC000016052714    0.1300
7      C7      0.7264    0.2694   -3.7400 C.3      1 ZINC000016052714    0.0400
8      N8      2.1576   -0.0557   -3.8036 N.3      1 ZINC000016052714   -0.5300
9      C9      2.7994    0.6138   -4.9428 C.3      1 ZINC000016052714    0.1200
10     C10     4.1938    0.0716   -5.1235 C.2      1 ZINC000016052714   -0.1300
11     C11     4.4987   -0.9643   -5.8877 C.2      1 ZINC000016052714   -0.1000
12     C12     5.9046   -1.3101   -5.9120 C.ar     1 ZINC000016052714    0.2000
13     N13     6.5438   -2.2960   -6.5770 N.ar     1 ZINC000016052714   -0.5000
14     C14     7.8489   -2.4532   -6.4696 C.ar     1 ZINC000016052714    0.4000
15     C15     8.5009   -3.5496   -7.2196 C.ar     1 ZINC000016052714    0.0200
16     C16     9.8641   -3.7522   -7.1302 C.ar     1 ZINC000016052714   -0.0800
17     C17    10.4906   -4.7796   -7.8301 C.ar     1 ZINC000016052714   -0.0900
18     C18     9.8130   -5.6365   -8.6335 C.ar     1 ZINC000016052714   -0.0700
19     C19     8.4166   -5.5162   -8.7936 C.ar     1 ZINC000016052714    0.1000
20     N20     7.4998   -6.1727   -9.4818 N.2      1 ZINC000016052714   -0.3000
21     N21     6.2502   -5.5875   -9.2465 N.pl3    1 ZINC000016052714   -0.4300
22     C22     6.3820   -4.5533   -8.4024 C.2      1 ZINC000016052714    0.1000
23     C23     7.7137   -4.4469   -8.0677 C.ar     1 ZINC000016052714   -0.1800
24     N24     8.5993   -1.6593   -5.7102 N.ar     1 ZINC000016052714   -0.5400
25     C25     8.0543   -0.6660   -5.0227 C.ar     1 ZINC000016052714    0.4200
26     N26     8.8414    0.1575   -4.2341 N.3      1 ZINC000016052714   -0.4700
27     C27     8.6806    1.5669   -4.6198 C.3      1 ZINC000016052714    0.0200
28     C28     9.5194    2.4446   -3.6870 C.3      1 ZINC000016052714    0.0700
29     O29    10.8842    2.0207   -3.7412 O.3      1 ZINC000016052714   -0.3800
30     C30    11.0773    0.6529   -3.3710 C.3      1 ZINC000016052714    0.0600
31     C31    10.2544   -0.2429   -4.3006 C.3      1 ZINC000016052714    0.0300
32     C32     6.6651   -0.4595   -5.1055 C.ar     1 ZINC000016052714   -0.2800
33     S33     5.6220    0.7375   -4.3537 S.3      1 ZINC000016052714    0.1500
34     C34     2.8366    0.2800   -2.5449 C.3      1 ZINC000016052714    0.0300
35     C35     2.2571   -0.5673   -1.4133 C.3      1 ZINC000016052714    0.1300
36     H36     1.0001    2.1870    0.0043 H        1 ZINC000016052714    0.1300
37     H37    -0.5497    2.1708   -0.8711 H        1 ZINC000016052714    0.1300
38     H38    -0.5327    2.1613    0.9088 H        1 ZINC000016052714    0.1300
39     H39     0.0902   -1.6345   -2.9468 H        1 ZINC000016052714    0.0800
40     H40    -0.9750   -0.2676   -2.5254 H        1 ZINC000016052714    0.1000
41     H41     0.2628    0.0603   -4.7041 H        1 ZINC000016052714    0.0900
42     H42     0.6036    1.3251   -3.4982 H        1 ZINC000016052714    0.0400
43     H43     2.2183    0.4303   -5.8465 H        1 ZINC000016052714    0.1000
44     H44     2.8482    1.6861   -4.7537 H        1 ZINC000016052714    0.0500
45     H45     3.7559   -1.5104   -6.4501 H        1 ZINC000016052714    0.1600
46     H46    10.4561   -3.1002   -6.5050 H        1 ZINC000016052714    0.1400
47     H47    11.5593   -4.8988   -7.7296 H        1 ZINC000016052714    0.1300
48     H48    10.3467   -6.4172   -9.1552 H        1 ZINC000016052714    0.1300
49     H49     5.4133   -5.8852   -9.6363 H        1 ZINC000016052714    0.4400
50     H50     5.5844   -3.9185   -8.0458 H        1 ZINC000016052714    0.2000
51     H51     9.0165    1.7035   -5.6478 H        1 ZINC000016052714    0.0700
52     H52     7.6309    1.8490   -4.5387 H        1 ZINC000016052714    0.0900
53     H53     9.4485    3.4849   -4.0047 H        1 ZINC000016052714    0.1100
54     H54     9.1488    2.3489   -2.6664 H        1 ZINC000016052714    0.0700
55     H55    12.1332    0.3973   -3.4601 H        1 ZINC000016052714    0.1100
56     H56    10.7521    0.5051   -2.3412 H        1 ZINC000016052714    0.0600
57     H57    10.3534   -1.2820   -3.9865 H        1 ZINC000016052714    0.1000
58     H58    10.6154   -0.1353   -5.3234 H        1 ZINC000016052714    0.0700
59     H59     3.9034    0.0786   -2.6423 H        1 ZINC000016052714    0.0900
60     H60     2.6844    1.3356   -2.3198 H        1 ZINC000016052714    0.0400
61     H61     2.6758   -0.2420   -0.4610 H        1 ZINC000016052714    0.1000
62     H62     2.4968   -1.6172   -1.5824 H        1 ZINC000016052714    0.0800
@<TRIPOS>BOND
1     1     2     1
2     1     36    1
3     1     37    1
4     1     38    1
5     2     3     2
6     2     4     2
7     2     5     am
8     5     35    1
9     5     6     1
10    6     7     1
11    6     39    1
12    6     40    1
13    7     8     1
14    7     41    1
15    7     42    1
16    8     9     1
17    8     34    1
18    9     10    1
19    9     43    1
20    9     44    1
21    10    33    1
22    10    11    2
23    11    12    1
24    11    45    1
25    12    32    ar
26    12    13    ar
27    13    14    ar
28    14    15    1
29    14    24    ar
30    15    23    ar
31    15    16    ar
32    16    17    ar
33    16    46    1
34    17    18    ar
35    17    47    1
36    18    19    ar
37    18    48    1
38    19    23    ar
39    19    20    2
40    20    21    1
41    21    22    1
42    21    49    1
43    22    23    2
44    22    50    1
45    24    25    ar
46    25    26    1
47    25    32    ar
48    26    31    1
49    26    27    1
50    27    28    1
51    27    51    1
52    27    52    1
53    28    29    1
54    28    53    1
55    28    54    1
56    29    30    1
57    30    31    1
58    30    55    1
59    30    56    1
60    31    57    1
61    31    58    1
62    32    33    1
63    34    35    1
64    34    59    1
65    34    60    1
66    35    61    1
67    35    62    1
@<TRIPOS>SUBSTRUCTURE
1   ZINC000016052714 1     RESIDUE    1   A     ZIN   1


@<TRIPOS>MOLECULE
CC1=C(SC2=C1N=C(N=C2N3CCOCC3)C4=CN=C(N=C4)N)CN5CCN(CC5)C(=O)C(C)O
  65   69    0    0    0
SMALL
USER_CHARGES
NO_NAME
@<TRIPOS>ATOM
    1 C1       -0.6270     1.4838     0.0826 C.3    1 <0>      -0.1000
    2 C2       -0.5581    -0.0215     0.0687 C.2    1 <0>      -0.0900
    3 C3       -0.7844    -0.7261    -1.0286 C.2    1 <0>      -0.1500
    4 C4       -1.1313    -0.1335    -2.3700 C.3    1 <0>       0.1200
    5 N5        0.1020     0.1242    -3.1253 N.3    1 <0>      -0.5300
    6 C6        1.1102     0.7776    -2.2800 C.3    1 <0>       0.0300
    7 C7        2.4350     0.8644    -3.0452 C.3    1 <0>       0.1200
    8 N8        2.1861     1.5217    -4.3372 N.am   1 <0>      -0.6100
    9 C9        2.9363     2.5675    -4.7372 C.2    1 <0>       0.5200
   10 O10       3.8306     2.9785    -4.0285 O.2    1 <0>      -0.5100
   11 C11       2.6638     3.2262    -6.0650 C.3    1 <0>       0.0900
   12 H12       1.6193     3.5344    -6.1102 H      1 <0>       0.0800
   13 C13       2.9525     2.2353    -7.1945 C.3    1 <0>      -0.1900
   14 O14       3.5053     4.3720    -6.2099 O.3    1 <0>      -0.5400
   15 C15       1.0971     1.0072    -5.1813 C.3    1 <0>       0.1100
   16 C16      -0.1751     0.9148    -4.3320 C.3    1 <0>       0.0400
   17 S17      -0.6254    -2.4450    -0.7087 S.3    1 <0>       0.1700
   18 C18      -0.2395    -2.1419     0.9791 C.ar   1 <0>      -0.3200
   19 C19       0.0544    -3.0161     2.0396 C.ar   1 <0>       0.5100
   20 N20       0.0729    -4.3865     1.8364 N.pl3  1 <0>      -0.6000
   21 C21      -0.0294    -4.9528     0.4821 C.3    1 <0>       0.0900
   22 C22       1.1088    -5.9621     0.2928 C.3    1 <0>       0.0500
   23 O23       1.0940    -6.8966     1.3746 O.3    1 <0>      -0.3700
   24 C24       1.3232    -6.3099     2.6580 C.3    1 <0>       0.0500
   25 C25       0.2016    -5.3183     2.9679 C.3    1 <0>       0.0900
   26 N26       0.3141    -2.5100     3.2372 N.ar   1 <0>      -0.5700
   27 C27       0.2979    -1.1957     3.4366 C.ar   1 <0>       0.4400
   28 C28       0.5949    -0.6746     4.7921 C.ar   1 <0>      -0.2200
   29 C29       0.8933    -1.5445     5.8449 C.ar   1 <0>       0.2500
   30 N30       1.1529    -1.0416     7.0383 N.ar   1 <0>      -0.5700
   31 C31       1.1330     0.2680     7.2436 C.ar   1 <0>       0.5800
   32 N32       1.4104     0.7540     8.5076 N.pl3  1 <0>      -0.8100
   33 N33       0.8549     1.1246     6.2709 N.ar   1 <0>      -0.5700
   34 C34       0.5894     0.6996     5.0488 C.ar   1 <0>       0.2500
   35 N35       0.0276    -0.3399     2.4720 N.ar   1 <0>      -0.5300
   36 C36      -0.2438    -0.7650     1.2179 C.ar   1 <0>       0.2200
   37 H37       0.3541     1.8947    -0.1554 H      1 <0>       0.0800
   38 H38      -1.3517     1.8212    -0.6584 H      1 <0>       0.0700
   39 H39      -0.9333     1.8244     1.0717 H      1 <0>       0.0800
   40 H40      -1.7579    -0.8319    -2.9247 H      1 <0>       0.0900
   41 H41      -1.6709     0.8025    -2.2252 H      1 <0>       0.0600
   42 H42       0.7730     1.7814    -2.0216 H      1 <0>       0.0500
   43 H43       1.2536     0.1960    -1.3693 H      1 <0>       0.0900
   44 H44       3.1528     1.4487    -2.4695 H      1 <0>       0.1000
   45 H45       2.8267    -0.1387    -3.2142 H      1 <0>       0.0800
   46 H46       2.3106     1.3613    -7.0840 H      1 <0>       0.0800
   47 H47       2.7554     2.7117    -8.1549 H      1 <0>       0.0700
   48 H48       3.9970     1.9271    -7.1494 H      1 <0>       0.0700
   49 H49       3.3836     4.8465    -7.0436 H      1 <0>       0.3900
   50 H50       0.9303     1.6858    -6.0179 H      1 <0>       0.0900
   51 H51       1.3601     0.0178    -5.5556 H      1 <0>       0.0800
   52 H52      -0.9638     0.4326    -4.9096 H      1 <0>       0.0900
   53 H53      -0.4944     1.9166    -4.0451 H      1 <0>       0.0400
   54 H54      -0.9893    -5.4561     0.3662 H      1 <0>       0.0900
   55 H55       0.0596    -4.1563    -0.2567 H      1 <0>       0.0900
   56 H56       0.9716    -6.4933    -0.6490 H      1 <0>       0.1100
   57 H57       2.0634    -5.4360     0.2793 H      1 <0>       0.0600
   58 H58       1.3402    -7.0914     3.4177 H      1 <0>       0.1100
   59 H59       2.2786    -5.7851     2.6530 H      1 <0>       0.0600
   60 H60       0.4414    -4.7649     3.8758 H      1 <0>       0.1100
   61 H61      -0.7370    -5.8560     3.1022 H      1 <0>       0.0800
   62 H62       0.9110    -2.6125     5.6849 H      1 <0>       0.1800
   63 H63       1.6159     0.1393     9.2293 H      1 <0>       0.4200
   64 H64       1.3995     1.7097     8.6729 H      1 <0>       0.4200
   65 H65       0.3636     1.4031     4.2611 H      1 <0>       0.1800
@<TRIPOS>BOND
   1    1    2 1
   2    1   37 1
   3    1   38 1
   4    1   39 1
   5    2   36 1
   6    2    3 2
   7    3    4 1
   8    3   17 1
   9    4    5 1
  10    4   40 1
  11    4   41 1
  12    5   16 1
  13    5    6 1
  14    6    7 1
  15    6   42 1
  16    6   43 1
  17    7    8 1
  18    7   44 1
  19    7   45 1
  20    8    9 am
  21    8   15 1
  22    9   10 2
  23    9   11 1
  24   11   12 1
  25   11   13 1
  26   11   14 1
  27   13   46 1
  28   13   47 1
  29   13   48 1
  30   14   49 1
  31   15   16 1
  32   15   50 1
  33   15   51 1
  34   16   52 1
  35   16   53 1
  36   17   18 1
  37   18   36 ar
  38   18   19 ar
  39   19   20 1
  40   19   26 ar
  41   20   25 1
  42   20   21 1
  43   21   22 1
  44   21   54 1
  45   21   55 1
  46   22   23 1
  47   22   56 1
  48   22   57 1
  49   23   24 1
  50   24   25 1
  51   24   58 1
  52   24   59 1
  53   25   60 1
  54   25   61 1
  55   26   27 ar
  56   27   28 1
  57   27   35 ar
  58   28   34 ar
  59   28   29 ar
  60   29   30 ar
  61   29   62 1
  62   30   31 ar
  63   31   32 1
  64   31   33 ar
  65   32   63 1
  66   32   64 1
  67   33   34 ar
  68   34   65 1
  69   35   36 ar


@<TRIPOS>MOLECULE
C1COCCN1C2=NC(=NC(=N2)C3=CN=C(C=C3C(F)(F)F)N)N4CCOCC4
49    52    1     0     0
SMALL
USER_CHARGES
@<TRIPOS>ATOM
1      N1     -0.0167    1.3826    0.0096 N.pl3    1 ZINC000068203488   -0.8300
2      C2      0.0021   -0.0041    0.0020 C.ar     1 ZINC000068203488    0.4300
3      C3     -1.1999   -0.7077    0.0040 C.ar     1 ZINC000068203488   -0.2000
4      C4     -1.1732   -2.0874   -0.0036 C.ar     1 ZINC000068203488   -0.0400
5      C5     -2.4524   -2.8841   -0.0023 C.3      1 ZINC000068203488    0.5200
6      F6     -3.5455   -2.0110    0.0073 F        1 ZINC000068203488   -0.1800
7      F7     -2.5046   -3.6842   -1.1487 F        1 ZINC000068203488   -0.1600
8      F8     -2.4945   -3.6966    1.1358 F        1 ZINC000068203488   -0.1600
9      C9      0.0718   -2.7295   -0.0131 C.ar     1 ZINC000068203488   -0.1400
10     C10     0.1539   -4.2082   -0.0220 C.ar     1 ZINC000068203488    0.4600
11     N11    -0.9596   -4.9367   -0.0266 N.ar     1 ZINC000068203488   -0.6000
12     C12    -0.8851   -6.2639   -0.0345 C.ar     1 ZINC000068203488    0.5700
13     N13    -2.0400   -7.0197   -0.0397 N.3      1 ZINC000068203488   -0.4500
14     C14    -2.0640   -7.9374   -1.1880 C.3      1 ZINC000068203488    0.0300
15     C15    -3.3299   -8.7958   -1.1220 C.3      1 ZINC000068203488    0.0600
16     O16    -4.4771   -7.9426   -1.0868 O.3      1 ZINC000068203488   -0.3800
17     C17    -4.4867   -7.0360    0.0193 C.3      1 ZINC000068203488    0.0600
18     C18    -3.2324   -6.1598   -0.0351 C.3      1 ZINC000068203488    0.0100
19     N19     0.3013   -6.8633   -0.0380 N.ar     1 ZINC000068203488   -0.5800
20     C20     1.4140   -6.1362   -0.0335 C.ar     1 ZINC000068203488    0.5700
21     N21     2.6455   -6.7596   -0.0370 N.3      1 ZINC000068203488   -0.4500
22     C22     2.7721   -7.6826    1.1002 C.3      1 ZINC000068203488    0.0300
23     C23     4.1252   -8.3948    1.0243 C.3      1 ZINC000068203488    0.0600
24     O24     5.1708   -7.4194    0.9997 O.3      1 ZINC000068203488   -0.3800
25     C25     5.0788   -6.5043   -0.0955 C.3      1 ZINC000068203488    0.0600
26     C26     3.7354   -5.7730   -0.0310 C.3      1 ZINC000068203488    0.0300
27     N27     1.3411   -4.8089   -0.0310 N.ar     1 ZINC000068203488   -0.6000
28     C28     1.2318   -1.9576   -0.0145 C.ar     1 ZINC000068203488    0.2300
29     N29     1.1636   -0.6423   -0.0125 N.ar     1 ZINC000068203488   -0.5300
30     H30     0.8166    1.8790    0.0044 H        1 ZINC000068203488    0.4100
31     H31    -0.8633    1.8561    0.0162 H        1 ZINC000068203488    0.4200
32     H32    -2.1420   -0.1797    0.0118 H        1 ZINC000068203488    0.1600
33     H33    -2.0621   -7.3621   -2.1138 H        1 ZINC000068203488    0.0600
34     H34    -1.1853   -8.5817   -1.1573 H        1 ZINC000068203488    0.1100
35     H35    -3.3806   -9.4378   -2.0014 H        1 ZINC000068203488    0.1100
36     H36    -3.3061   -9.4109   -0.2225 H        1 ZINC000068203488    0.0700
37     H37    -5.3740   -6.4052   -0.0348 H        1 ZINC000068203488    0.1100
38     H38    -4.4965   -7.6000    0.9520 H        1 ZINC000068203488    0.0600
39     H39    -3.2067   -5.5065    0.8370 H        1 ZINC000068203488    0.1100
40     H40    -3.2493   -5.5561   -0.9425 H        1 ZINC000068203488    0.0800
41     H41     2.7075   -7.1222    2.0328 H        1 ZINC000068203488    0.0600
42     H42     1.9701   -8.4198    1.0616 H        1 ZINC000068203488    0.1100
43     H43     4.2475   -9.0376    1.8960 H        1 ZINC000068203488    0.1100
44     H44     4.1687   -8.9980    0.1174 H        1 ZINC000068203488    0.0700
45     H45     5.8909   -5.7799   -0.0337 H        1 ZINC000068203488    0.1100
46     H46     5.1501   -7.0525   -1.0349 H        1 ZINC000068203488    0.0600
47     H47     3.6366   -5.1162   -0.8952 H        1 ZINC000068203488    0.1000
48     H48     3.6863   -5.1820    0.8836 H        1 ZINC000068203488    0.0700
49     H49     2.1966   -2.4428   -0.0218 H        1 ZINC000068203488    0.1800
@<TRIPOS>BOND
1     1     2     1
2     1     30    1
3     1     31    1
4     2     29    ar
5     2     3     ar
6     3     4     ar
7     3     32    1
8     4     5     1
9     4     9     ar
10    5     6     1
11    5     7     1
12    5     8     1
13    9     10    1
14    9     28    ar
15    10    27    ar
16    10    11    ar
17    11    12    ar
18    12    13    1
19    12    19    ar
20    13    18    1
21    13    14    1
22    14    15    1
23    14    33    1
24    14    34    1
25    15    16    1
26    15    35    1
27    15    36    1
28    16    17    1
29    17    18    1
30    17    37    1
31    17    38    1
32    18    39    1
33    18    40    1
34    19    20    ar
35    20    21    1
36    20    27    ar
37    21    26    1
38    21    22    1
39    22    23    1
40    22    41    1
41    22    42    1
42    23    24    1
43    23    43    1
44    23    44    1
45    24    25    1
46    25    26    1
47    25    45    1
48    25    46    1
49    26    47    1
50    26    48    1
51    28    29    ar
52    28    49    1
@<TRIPOS>SUBSTRUCTURE
1   ZINC000068203488 1     RESIDUE    1   A     ZIN   1


@<TRIPOS>MOLECULE
CC1(C2=NC3=C(N2CCO1)N=C(N=C3N4CCOCC4)C5=CN=C(N=C5)N)C
50    54    1     0     0
SMALL
USER_CHARGES
@<TRIPOS>ATOM
1      C1     -0.0187    1.5258    0.0104 C.3      1 ZINC000149645112   -0.1300
2      C2      0.0021   -0.0041    0.0020 C.3      1 ZINC000149645112    0.2000
3      C3     -1.4306   -0.5410   -0.0061 C.3      1 ZINC000149645112   -0.1700
4      O4      0.7038   -0.4734   -1.1570 O.3      1 ZINC000149645112   -0.3600
5      C5      0.9860   -1.8753   -1.1393 C.3      1 ZINC000149645112    0.0400
6      C6      2.0625   -2.1718   -0.0876 C.3      1 ZINC000149645112    0.0800
7      N7      1.6767   -1.5087    1.1630 N.pl3    1 ZINC000149645112   -0.4600
8      C8      2.1293   -1.7187    2.4213 C.ar     1 ZINC000149645112    0.3000
9      N9      3.0279   -2.5439    2.9520 N.ar     1 ZINC000149645112   -0.5200
10     C10     3.2263   -2.4786    4.2668 C.ar     1 ZINC000149645112    0.4300
11     C11     4.2253   -3.3944    4.8657 C.ar     1 ZINC000149645112   -0.2200
12     C12     4.4769   -3.3805    6.2411 C.ar     1 ZINC000149645112    0.2500
13     N13     5.3746   -4.2126    6.7371 N.ar     1 ZINC000149645112   -0.5700
14     C14     6.0323   -5.0522    5.9497 C.ar     1 ZINC000149645112    0.5800
15     N15     6.9639   -5.9068    6.5085 N.pl3    1 ZINC000149645112   -0.8100
16     N16     5.8215   -5.0956    4.6415 N.ar     1 ZINC000149645112   -0.5700
17     C17     4.9363   -4.2987    4.0708 C.ar     1 ZINC000149645112    0.2500
18     N18     2.5850   -1.6439    5.0731 N.ar     1 ZINC000149645112   -0.5700
19     C19     1.6680   -0.7806    4.6321 C.ar     1 ZINC000149645112    0.4500
20     N20     1.0044    0.0871    5.4818 N.3      1 ZINC000149645112   -0.4600
21     C21     1.1797    1.4821    5.0521 C.3      1 ZINC000149645112    0.0200
22     C22     0.3826    2.4008    5.9819 C.3      1 ZINC000149645112    0.0700
23     O23     0.8096    2.1921    7.3308 O.3      1 ZINC000149645112   -0.3800
24     C24     0.6524    0.8442    7.7824 C.3      1 ZINC000149645112    0.0600
25     C25     1.4522   -0.0903    6.8708 C.3      1 ZINC000149645112    0.0200
26     C26     1.4193   -0.8092    3.2463 C.ar     1 ZINC000149645112   -0.0800
27     N27     0.5897   -0.1110    2.4525 N.2      1 ZINC000149645112   -0.4300
28     C28     0.7318   -0.5123    1.2241 C.2      1 ZINC000149645112    0.2400
29     H29     1.0039    1.9031    0.0027 H        1 ZINC000149645112    0.0700
30     H30    -0.5459    1.8868   -0.8726 H        1 ZINC000149645112    0.0800
31     H31    -0.5289    1.8773    0.9072 H        1 ZINC000149645112    0.0900
32     H32    -1.9480   -0.1825   -0.8960 H        1 ZINC000149645112    0.0800
33     H33    -1.4101   -1.6308   -0.0121 H        1 ZINC000149645112    0.0600
34     H34    -1.9543   -0.1924    0.8840 H        1 ZINC000149645112    0.0800
35     H35     0.0775   -2.4251   -0.8936 H        1 ZINC000149645112    0.0700
36     H36     1.3429   -2.1859   -2.1213 H        1 ZINC000149645112    0.1300
37     H37     2.1330   -3.2476    0.0732 H        1 ZINC000149645112    0.1100
38     H38     3.0240   -1.7864   -0.4267 H        1 ZINC000149645112    0.1000
39     H39     3.9451   -2.6989    6.8884 H        1 ZINC000149645112    0.1800
40     H40     7.1287   -5.8868    7.4642 H        1 ZINC000149645112    0.4200
41     H41     7.4529   -6.5267    5.9449 H        1 ZINC000149645112    0.4200
42     H42     4.7694   -4.3397    3.0046 H        1 ZINC000149645112    0.1800
43     H43     2.2361    1.7468    5.0968 H        1 ZINC000149645112    0.0600
44     H44     0.8182    1.5963    4.0301 H        1 ZINC000149645112    0.1100
45     H45     0.5551    3.4401    5.7022 H        1 ZINC000149645112    0.1100
46     H46    -0.6797    2.1719    5.8968 H        1 ZINC000149645112    0.0700
47     H47     1.0201    0.7577    8.8048 H        1 ZINC000149645112    0.1100
48     H48    -0.4020    0.5700    7.7497 H        1 ZINC000149645112    0.0600
49     H49     1.2897   -1.1238    7.1764 H        1 ZINC000149645112    0.1000
50     H50     2.5130    0.1493    6.9446 H        1 ZINC000149645112    0.0700
@<TRIPOS>BOND
1     1     2     1
2     1     29    1
3     1     30    1
4     1     31    1
5     2     28    1
6     2     3     1
7     2     4     1
8     3     32    1
9     3     33    1
10    3     34    1
11    4     5     1
12    5     6     1
13    5     35    1
14    5     36    1
15    6     7     1
16    6     37    1
17    6     38    1
18    7     28    1
19    7     8     1
20    8     26    ar
21    8     9     ar
22    9     10    ar
23    10    11    1
24    10    18    ar
25    11    17    ar
26    11    12    ar
27    12    13    ar
28    12    39    1
29    13    14    ar
30    14    15    1
31    14    16    ar
32    15    40    1
33    15    41    1
34    16    17    ar
35    17    42    1
36    18    19    ar
37    19    20    1
38    19    26    ar
39    20    25    1
40    20    21    1
41    21    22    1
42    21    43    1
43    21    44    1
44    22    23    1
45    22    45    1
46    22    46    1
47    23    24    1
48    24    25    1
49    24    47    1
50    24    48    1
51    25    49    1
52    25    50    1
53    26    27    1
54    27    28    2
@<TRIPOS>SUBSTRUCTURE
1   ZINC000149645112 1     RESIDUE    1   A     ZIN   1


@<TRIPOS>MOLECULE
CC1=C(SC2=C1N=C(N=C2N3CCOCC3)C4=CN=C(N=C4)N)CN5CCN(CC5)S(=O)(=O)C
62    66    1     0     0
SMALL
USER_CHARGES
@<TRIPOS>ATOM
1      C1     -0.0184    1.5028    0.0103 C.3      1 ZINC000043202843   -0.1000
2      C2      0.0021   -0.0041    0.0020 C.2      1 ZINC000043202843   -0.0900
3      C3      0.0061   -0.7014   -1.1229 C.2      1 ZINC000043202843   -0.1400
4      C4     -0.0093   -0.0985   -2.5039 C.3      1 ZINC000043202843    0.1200
5      N5      1.3705    0.1167   -2.9597 N.3      1 ZINC000043202843   -0.5300
6      C6      2.1829    0.7364   -1.9043 C.3      1 ZINC000043202843    0.0300
7      C7      3.6484    0.7778   -2.3503 C.3      1 ZINC000043202843    0.1200
8      N8      3.7194    1.4421   -3.6606 N.am     1 ZINC000043202843   -1.0000
9      S9      4.7703    2.6948   -3.9226 S.o2     1 ZINC000043202843    2.6100
10     C10     6.2906    1.8957   -4.5061 C.3      1 ZINC000043202843   -0.6700
11     O11     4.1680    3.4446   -4.9686 O.2      1 ZINC000043202843   -0.9500
12     O12     4.9677    3.2618   -2.6346 O.2      1 ZINC000043202843   -0.9500
13     C13     2.8326    0.9640   -4.7321 C.3      1 ZINC000043202843    0.1200
14     C14     1.3992    0.9153   -4.1923 C.3      1 ZINC000043202843    0.0400
15     S15     0.0318   -2.4245   -0.7872 S.3      1 ZINC000043202843    0.1800
16     C16     0.0365   -2.1332    0.9462 C.ar     1 ZINC000043202843   -0.2900
17     C17     0.0544   -3.0161    2.0396 C.ar     1 ZINC000043202843    0.4200
18     N18     0.0729   -4.3865    1.8364 N.3      1 ZINC000043202843   -0.4700
19     C19    -1.0679   -4.8124    1.0126 C.3      1 ZINC000043202843    0.0200
20     C20    -0.9758   -6.3202    0.7636 C.3      1 ZINC000043202843    0.0700
21     O21    -0.9294   -7.0037    2.0190 O.3      1 ZINC000043202843   -0.3800
22     C22     0.1699   -6.6136    2.8466 C.3      1 ZINC000043202843    0.0600
23     C23     0.0894   -5.1087    3.1167 C.3      1 ZINC000043202843    0.0300
24     N24     0.0537   -2.5182    3.2684 N.ar     1 ZINC000043202843   -0.5500
25     C25     0.0364   -1.2039    3.4680 C.ar     1 ZINC000043202843    0.4200
26     C26     0.0369   -0.6921    4.8591 C.ar     1 ZINC000043202843   -0.2200
27     C27     0.0611   -1.5708    5.9461 C.ar     1 ZINC000043202843    0.2500
28     N28     0.0611   -1.0759    7.1708 N.ar     1 ZINC000043202843   -0.5700
29     C29     0.0387    0.2337    7.3753 C.ar     1 ZINC000043202843    0.5800
30     N30     0.0396    0.7110    8.6725 N.pl3    1 ZINC000043202843   -0.8100
31     N31     0.0158    1.0985    6.3708 N.ar     1 ZINC000043202843   -0.5700
32     C32     0.0191    0.6817    5.1174 C.ar     1 ZINC000043202843    0.2500
33     N33     0.0193   -0.3402    2.4732 N.ar     1 ZINC000043202843   -0.5100
34     C34     0.0241   -0.7568    1.1873 C.ar     1 ZINC000043202843    0.2100
35     H35     1.0042    1.8801    0.0026 H        1 ZINC000043202843    0.0800
36     H36    -0.5455    1.8639   -0.8728 H        1 ZINC000043202843    0.0700
37     H37    -0.5286    1.8543    0.9071 H        1 ZINC000043202843    0.0800
38     H38    -0.5173   -0.7758   -3.1904 H        1 ZINC000043202843    0.1000
39     H39    -0.5364    0.8553   -2.4781 H        1 ZINC000043202843    0.0700
40     H40     1.8295    1.7512   -1.7217 H        1 ZINC000043202843    0.0500
41     H41     2.0977    0.1510   -0.9888 H        1 ZINC000043202843    0.0900
42     H42     4.2367    1.3378   -1.6234 H        1 ZINC000043202843    0.1000
43     H43     4.0346   -0.2381   -2.4334 H        1 ZINC000043202843    0.0800
44     H44     6.0817    1.3417   -5.4213 H        1 ZINC000043202843    0.1300
45     H45     7.0467    2.6550   -4.7057 H        1 ZINC000043202843    0.1300
46     H46     6.6571    1.2101   -3.7421 H        1 ZINC000043202843    0.1300
47     H47     2.8815    1.6472   -5.5800 H        1 ZINC000043202843    0.1000
48     H48     3.1404   -0.0340   -5.0442 H        1 ZINC000043202843    0.0800
49     H49     0.7457    0.4597   -4.9362 H        1 ZINC000043202843    0.0900
50     H50     1.0567    1.9276   -3.9780 H        1 ZINC000043202843    0.0500
51     H51    -1.9979   -4.5857    1.5339 H        1 ZINC000043202843    0.0700
52     H52    -1.0460   -4.2840    0.0595 H        1 ZINC000043202843    0.0900
53     H53    -1.8495   -6.6502    0.2016 H        1 ZINC000043202843    0.1100
54     H54    -0.0721   -6.5407    0.1954 H        1 ZINC000043202843    0.0700
55     H55     0.1248   -7.1558    3.7910 H        1 ZINC000043202843    0.1100
56     H56     1.1069   -6.8426    2.3390 H        1 ZINC000043202843    0.0600
57     H57     0.9561   -4.7967    3.6995 H        1 ZINC000043202843    0.1000
58     H58    -0.8221   -4.8868    3.6716 H        1 ZINC000043202843    0.0700
59     H59     0.0791   -2.6388    5.7868 H        1 ZINC000043202843    0.1800
60     H60     0.0565    0.0902    9.4177 H        1 ZINC000043202843    0.4200
61     H61     0.0234    1.6667    8.8377 H        1 ZINC000043202843    0.4200
62     H62     0.0004    1.3918    4.3039 H        1 ZINC000043202843    0.1800
@<TRIPOS>BOND
1     1     2     1
2     1     35    1
3     1     36    1
4     1     37    1
5     2     34    1
6     2     3     2
7     3     4     1
8     3     15    1
9     4     5     1
10    4     38    1
11    4     39    1
12    5     14    1
13    5     6     1
14    6     7     1
15    6     40    1
16    6     41    1
17    7     8     1
18    7     42    1
19    7     43    1
20    8     9     am
21    8     13    1
22    9     10    1
23    9     11    2
24    9     12    2
25    10    44    1
26    10    45    1
27    10    46    1
28    13    14    1
29    13    47    1
30    13    48    1
31    14    49    1
32    14    50    1
33    15    16    1
34    16    34    ar
35    16    17    ar
36    17    18    1
37    17    24    ar
38    18    23    1
39    18    19    1
40    19    20    1
41    19    51    1
42    19    52    1
43    20    21    1
44    20    53    1
45    20    54    1
46    21    22    1
47    22    23    1
48    22    55    1
49    22    56    1
50    23    57    1
51    23    58    1
52    24    25    ar
53    25    26    1
54    25    33    ar
55    26    32    ar
56    26    27    ar
57    27    28    ar
58    27    59    1
59    28    29    ar
60    29    30    1
61    29    31    ar
62    30    60    1
63    30    61    1
64    31    32    ar
65    32    62    1
66    33    34    ar
@<TRIPOS>SUBSTRUCTURE
1   ZINC000043202843 1     RESIDUE    1   A     ZIN   1


@<TRIPOS>MOLECULE
CC1=C2C=C(C(=O)N(C2=NC(=N1)N)C3CCC(CC3)OCCO)C4=CN=C(C=C4)OC
58    61    1     0     0
SMALL
USER_CHARGES
@<TRIPOS>ATOM
1      C1      0.3907    1.8276    0.1285 C.3      1 ZINC000058660483    0.0400
2      O2      0.2999    0.4025    0.0749 O.3      1 ZINC000058660483   -0.3100
3      C3      0.8624   -0.2894    1.0975 C.ar     1 ZINC000058660483    0.3200
4      C4      0.8099   -1.6782    1.0958 C.ar     1 ZINC000058660483   -0.1900
5      C5      1.3851   -2.3769    2.1400 C.ar     1 ZINC000058660483   -0.0200
6      C6      2.0024   -1.6514    3.1655 C.ar     1 ZINC000058660483   -0.1200
7      C7      2.6344   -2.3530    4.3075 C.2      1 ZINC000058660483   -0.1300
8      C8      3.7298   -3.1493    4.1081 C.2      1 ZINC000058660483   -0.0100
9      C9      4.3108   -3.8058    5.2173 C.ar     1 ZINC000058660483   -0.2800
10     C10     5.4343   -4.6321    5.0662 C.ar     1 ZINC000058660483    0.2800
11     C11     6.0566   -4.8442    3.7102 C.3      1 ZINC000058660483   -0.1100
12     N12     5.9351   -5.2196    6.1370 N.ar     1 ZINC000058660483   -0.5900
13     C13     5.3943   -5.0389    7.3368 C.ar     1 ZINC000058660483    0.6200
14     N14     5.9581   -5.6774    8.4234 N.pl3    1 ZINC000058660483   -0.8100
15     N15     4.3347   -4.2685    7.5290 N.ar     1 ZINC000058660483   -0.6100
16     C16     3.7645   -3.6383    6.5081 C.ar     1 ZINC000058660483    0.4800
17     N17     2.6666   -2.8377    6.6982 N.am     1 ZINC000058660483   -0.4900
18     C18     2.1132   -2.6737    8.0448 C.3      1 ZINC000058660483    0.1300
19     C19     2.1644   -1.1968    8.4408 C.3      1 ZINC000058660483   -0.1200
20     C20     1.3416   -0.3736    7.4476 C.3      1 ZINC000058660483   -0.1600
21     C21    -0.1102   -0.8563    7.4647 C.3      1 ZINC000058660483    0.1300
22     O22    -0.8786   -0.0875    6.5371 O.3      1 ZINC000058660483   -0.3600
23     C23    -2.2517    0.0625    6.9035 C.3      1 ZINC000058660483    0.0600
24     C24    -2.9738    0.8981    5.8446 C.3      1 ZINC000058660483    0.0800
25     O25    -2.9887    0.1868    4.6053 O.3      1 ZINC000058660483   -0.5600
26     C26    -0.1613   -2.3332    7.0687 C.3      1 ZINC000058660483   -0.1800
27     C27     0.6615   -3.1563    8.0619 C.3      1 ZINC000058660483   -0.1200
28     C28     2.0962   -2.1959    5.6605 C.2      1 ZINC000058660483    0.4000
29     O29     1.1221   -1.4885    5.8468 O.2      1 ZINC000058660483   -0.3500
30     C30     2.0144   -0.2599    3.0965 C.ar     1 ZINC000058660483    0.1700
31     N31     1.4581    0.3672    2.0796 N.ar     1 ZINC000058660483   -0.5400
32     H32     1.4394    2.1246    0.1412 H        1 ZINC000058660483    0.0600
33     H33    -0.0976    2.2559   -0.7468 H        1 ZINC000058660483    0.1000
34     H34    -0.1003    2.1892    1.0319 H        1 ZINC000058660483    0.0600
35     H35     0.3246   -2.2054    0.2877 H        1 ZINC000058660483    0.1400
36     H36     1.3586   -3.4563    2.1644 H        1 ZINC000058660483    0.1400
37     H37     4.1437   -3.2744    3.1185 H        1 ZINC000058660483    0.1400
38     H38     6.8220   -4.0872    3.5393 H        1 ZINC000058660483    0.1000
39     H39     6.5097   -5.8348    3.6693 H        1 ZINC000058660483    0.0900
40     H40     5.2883   -4.7641    2.9413 H        1 ZINC000058660483    0.0900
41     H41     6.7349   -6.2457    8.3027 H        1 ZINC000058660483    0.4200
42     H42     5.5774   -5.5578    9.3075 H        1 ZINC000058660483    0.4200
43     H43     2.6994   -3.2601    8.7524 H        1 ZINC000058660483    0.1200
44     H44     1.7527   -1.0748    9.4427 H        1 ZINC000058660483    0.0800
45     H45     3.1987   -0.8529    8.4286 H        1 ZINC000058660483    0.0700
46     H46     1.3780    0.6786    7.7298 H        1 ZINC000058660483    0.0500
47     H47     1.7533   -0.4956    6.4458 H        1 ZINC000058660483    0.1600
48     H48    -0.5219   -0.7343    8.4666 H        1 ZINC000058660483    0.0400
49     H49    -2.7189   -0.9199    6.9718 H        1 ZINC000058660483    0.0500
50     H50    -2.3174    0.5640    7.8690 H        1 ZINC000058660483    0.0600
51     H51    -3.9976    1.0875    6.1672 H        1 ZINC000058660483    0.0600
52     H52    -2.4530    1.8465    5.7129 H        1 ZINC000058660483    0.0500
53     H53    -3.4318    0.6582    3.8865 H        1 ZINC000058660483    0.3800
54     H54    -1.1956   -2.6771    7.0808 H        1 ZINC000058660483    0.0400
55     H55     0.2504   -2.4552    6.0668 H        1 ZINC000058660483    0.1600
56     H56     0.6250   -4.2086    7.7797 H        1 ZINC000058660483    0.0700
57     H57     0.2498   -3.0343    9.0637 H        1 ZINC000058660483    0.0800
58     H58     2.4878    0.3103    3.8821 H        1 ZINC000058660483    0.1600
@<TRIPOS>BOND
1     1     2     1
2     1     32    1
3     1     33    1
4     1     34    1
5     2     3     1
6     3     31    ar
7     3     4     ar
8     4     5     ar
9     4     35    1
10    5     6     ar
11    5     36    1
12    6     7     1
13    6     30    ar
14    7     28    1
15    7     8     2
16    8     9     1
17    8     37    1
18    9     16    ar
19    9     10    ar
20    10    11    1
21    10    12    ar
22    11    38    1
23    11    39    1
24    11    40    1
25    12    13    ar
26    13    14    1
27    13    15    ar
28    14    41    1
29    14    42    1
30    15    16    ar
31    16    17    1
32    17    18    1
33    17    28    am
34    18    27    1
35    18    19    1
36    18    43    1
37    19    20    1
38    19    44    1
39    19    45    1
40    20    21    1
41    20    46    1
42    20    47    1
43    21    22    1
44    21    26    1
45    21    48    1
46    22    23    1
47    23    24    1
48    23    49    1
49    23    50    1
50    24    25    1
51    24    51    1
52    24    52    1
53    25    53    1
54    26    27    1
55    26    54    1
56    26    55    1
57    27    56    1
58    27    57    1
59    28    29    2
60    30    31    ar
61    30    58    1
@<TRIPOS>SUBSTRUCTURE
1   ZINC000058660483 1     RESIDUE    1   A     ZIN   1


@<TRIPOS>MOLECULE
CC1=NC=C(C=C1)C2=NC3=C4C(=CN=C3C=C2)N(C(=O)N4C5CCN(CC5)C(=O)C(C)O)C
59    63    1     0     0
SMALL
USER_CHARGES
@<TRIPOS>ATOM
1      C1      0.4761    2.6628   -0.7961 C.3      1 ZINC000068245474   -0.1100
2      C2      0.3483    1.1803   -0.5570 C.ar     1 ZINC000068245474    0.1400
3      C3      0.2740    0.3207   -1.6376 C.ar     1 ZINC000068245474   -0.1800
4      C4      0.1566   -1.0404   -1.4134 C.ar     1 ZINC000068245474   -0.0300
5      C5      0.1178   -1.4936   -0.0916 C.ar     1 ZINC000068245474   -0.1200
6      C6     -0.0065   -2.9411    0.2054 C.ar     1 ZINC000068245474    0.2100
7      C7     -0.0489   -3.3676    1.5411 C.ar     1 ZINC000068245474   -0.1500
8      C8     -0.1630   -4.6958    1.8266 C.ar     1 ZINC000068245474   -0.0300
9      C9     -0.2357   -5.6089    0.7558 C.ar     1 ZINC000068245474    0.0800
10     N10    -0.3487   -6.9218    0.9812 N.ar     1 ZINC000068245474   -0.4500
11     C11    -0.4185   -7.7910    0.0011 C.ar     1 ZINC000068245474    0.1700
12     C12    -0.3779   -7.3851   -1.3339 C.ar     1 ZINC000068245474    0.0300
13     C13    -0.2613   -6.0336   -1.6368 C.ar     1 ZINC000068245474    0.1500
14     C14    -0.1874   -5.1115   -0.5703 C.ar     1 ZINC000068245474    0.1200
15     N15    -0.0805   -3.8021   -0.7923 N.ar     1 ZINC000068245474   -0.4700
16     N16    -0.2462   -5.9233   -3.0146 N.am     1 ZINC000068245474   -0.5100
17     C17    -0.1364   -4.6748   -3.7732 C.3      1 ZINC000068245474    0.1600
18     C18     1.1186   -4.7185   -4.6480 C.3      1 ZINC000068245474   -0.1500
19     C19     1.2487   -3.3979   -5.4135 C.3      1 ZINC000068245474    0.1200
20     N20     0.0039   -3.1568   -6.1557 N.am     1 ZINC000068245474   -0.6100
21     C21     0.0305   -2.9163   -7.4815 C.2      1 ZINC000068245474    0.4900
22     O22     1.0925   -2.8010   -8.0557 O.2      1 ZINC000068245474   -0.5300
23     C23    -1.2594   -2.7905   -8.2506 C.3      1 ZINC000068245474    0.0900
24     H24    -1.9234   -2.0965   -7.7353 H        1 ZINC000068245474    0.1200
25     C25    -1.9310   -4.1618   -8.3478 C.3      1 ZINC000068245474   -0.1900
26     O26    -0.9847   -2.3004   -9.5645 O.3      1 ZINC000068245474   -0.5400
27     C27    -1.2706   -3.1835   -5.4252 C.3      1 ZINC000068245474    0.1100
28     C28    -1.3726   -4.5065   -4.6596 C.3      1 ZINC000068245474   -0.1500
29     C29    -0.3495   -7.1590   -3.5413 C.2      1 ZINC000068245474    0.6700
30     O30    -0.3667   -7.4172   -4.7304 O.2      1 ZINC000068245474   -0.5400
31     N31    -0.4310   -8.0644   -2.5471 N.am     1 ZINC000068245474   -0.5200
32     C32    -0.5541   -9.5146   -2.7145 C.3      1 ZINC000068245474    0.0900
33     C33     0.1983   -0.5626    0.9427 C.ar     1 ZINC000068245474    0.1300
34     N34     0.3145    0.7228    0.6799 N.ar     1 ZINC000068245474   -0.4800
35     H35     1.5307    2.9311   -0.8587 H        1 ZINC000068245474    0.0800
36     H36    -0.0214    2.9244   -1.7300 H        1 ZINC000068245474    0.0800
37     H37     0.0115    3.2050    0.0274 H        1 ZINC000068245474    0.0800
38     H38     0.3068    0.7070   -2.6456 H        1 ZINC000068245474    0.1400
39     H39     0.0963   -1.7344   -2.2387 H        1 ZINC000068245474    0.1400
40     H40     0.0092   -2.6452    2.3418 H        1 ZINC000068245474    0.1500
41     H41    -0.1966   -5.0402    2.8496 H        1 ZINC000068245474    0.1600
42     H42    -0.5089   -8.8422    0.2318 H        1 ZINC000068245474    0.1700
43     H43    -0.0680   -3.8348   -3.0820 H        1 ZINC000068245474    0.1200
44     H44     1.9964   -4.8618   -4.0180 H        1 ZINC000068245474    0.0800
45     H45     1.0399   -5.5433   -5.3563 H        1 ZINC000068245474    0.0900
46     H46     1.4183   -2.5829   -4.7098 H        1 ZINC000068245474    0.0700
47     H47     2.0838   -3.4607   -6.1112 H        1 ZINC000068245474    0.1000
48     H48    -2.2045   -4.5040   -7.3497 H        1 ZINC000068245474    0.0700
49     H49    -2.8269   -4.0847   -8.9638 H        1 ZINC000068245474    0.0800
50     H50    -1.2399   -4.8737   -8.7992 H        1 ZINC000068245474    0.0700
51     H51    -0.3984   -2.8693  -10.0819 H        1 ZINC000068245474    0.3900
52     H52    -1.3065   -2.3510   -4.7225 H        1 ZINC000068245474    0.0800
53     H53    -2.0979   -3.1049   -6.1306 H        1 ZINC000068245474    0.1000
54     H54    -1.4278   -5.3333   -5.3677 H        1 ZINC000068245474    0.0900
55     H55    -2.2678   -4.4989   -4.0378 H        1 ZINC000068245474    0.0800
56     H56    -0.5709   -9.7576   -3.7769 H        1 ZINC000068245474    0.1000
57     H57     0.2952  -10.0082   -2.2422 H        1 ZINC000068245474    0.0800
58     H58    -1.4783   -9.8569   -2.2488 H        1 ZINC000068245474    0.0800
59     H59     0.1691   -0.8986    1.9687 H        1 ZINC000068245474    0.1600
@<TRIPOS>BOND
1     1     2     1
2     1     35    1
3     1     36    1
4     1     37    1
5     2     34    ar
6     2     3     ar
7     3     4     ar
8     3     38    1
9     4     5     ar
10    4     39    1
11    5     6     1
12    5     33    ar
13    6     15    ar
14    6     7     ar
15    7     8     ar
16    7     40    1
17    8     9     ar
18    8     41    1
19    9     14    ar
20    9     10    ar
21    10    11    ar
22    11    12    ar
23    11    42    1
24    12    31    1
25    12    13    ar
26    13    14    ar
27    13    16    1
28    14    15    ar
29    16    17    1
30    16    29    am
31    17    28    1
32    17    18    1
33    17    43    1
34    18    19    1
35    18    44    1
36    18    45    1
37    19    20    1
38    19    46    1
39    19    47    1
40    20    21    am
41    20    27    1
42    21    22    2
43    21    23    1
44    23    24    1
45    23    25    1
46    23    26    1
47    25    48    1
48    25    49    1
49    25    50    1
50    26    51    1
51    27    28    1
52    27    52    1
53    27    53    1
54    28    54    1
55    28    55    1
56    29    30    2
57    29    31    am
58    31    32    1
59    32    56    1
60    32    57    1
61    32    58    1
62    33    34    ar
63    33    59    1
@<TRIPOS>SUBSTRUCTURE
1   ZINC000068245474 1     RESIDUE    1   A     ZIN   1


@<TRIPOS>MOLECULE
CCN1C2=C(C(=NC(=N2)C3=CC=C(C=C3)NC(=O)NC4=CC=C(C=C4)C(=O)N5CCN(CC5)C)N6CCOCC6)N=N1
76    81    1     0     0
SMALL
USER_CHARGES
@<TRIPOS>ATOM
1      C1     -0.6219    4.2129   -0.8910 C.3      1 ZINC000049745945   -0.1700
2      C2     -0.2352    2.7739   -0.5435 C.3      1 ZINC000049745945    0.1300
3      N3     -1.4480    1.9779   -0.3399 N.pl3    1 ZINC000049745945   -0.3800
4      N4     -2.1369    1.7935    0.8685 N.2      1 ZINC000049745945    0.0000
5      N5     -3.1566    1.0339    0.6670 N.2      1 ZINC000049745945   -0.1800
6      C6     -3.2181    0.6748   -0.6263 C.ar     1 ZINC000049745945   -0.1400
7      C7     -4.1012   -0.1256   -1.3814 C.ar     1 ZINC000049745945    0.4700
8      N8     -5.1874   -0.7353   -0.7829 N.3      1 ZINC000049745945   -0.4600
9      C9     -4.7626   -1.5845    0.3394 C.3      1 ZINC000049745945    0.0200
10     C10    -5.9982   -2.1916    1.0091 C.3      1 ZINC000049745945    0.0600
11     O11    -6.7532   -2.9182    0.0358 O.3      1 ZINC000049745945   -0.3800
12     C12    -7.1837   -2.1215   -1.0710 C.3      1 ZINC000049745945    0.0600
13     C13    -5.9601   -1.5137   -1.7619 C.3      1 ZINC000049745945    0.0200
14     N14    -3.8672   -0.2801   -2.6774 N.ar     1 ZINC000049745945   -0.5600
15     C15    -2.8254    0.3024   -3.2632 C.ar     1 ZINC000049745945    0.4500
16     C16    -2.6124    0.0952   -4.7147 C.ar     1 ZINC000049745945   -0.0700
17     C17    -3.4999   -0.6951   -5.4453 C.ar     1 ZINC000049745945   -0.0400
18     C18    -3.2995   -0.8863   -6.7952 C.ar     1 ZINC000049745945   -0.1600
19     C19    -2.2140   -0.2923   -7.4290 C.ar     1 ZINC000049745945    0.1900
20     N20    -2.0134   -0.4873   -8.7976 N.am     1 ZINC000049745945   -0.6800
21     C21    -0.7616   -0.5420   -9.2941 C.2      1 ZINC000049745945    0.7000
22     O22     0.1926   -0.5202   -8.5410 O.2      1 ZINC000049745945   -0.5500
23     N23    -0.5676   -0.6208  -10.6255 N.am     1 ZINC000049745945   -0.6800
24     C24     0.7197   -0.7893  -11.1336 C.ar     1 ZINC000049745945    0.1900
25     C25     1.6530   -1.5394  -10.4249 C.ar     1 ZINC000049745945   -0.1200
26     C26     2.9248   -1.7082  -10.9240 C.ar     1 ZINC000049745945   -0.0400
27     C27     3.2781   -1.1251  -12.1440 C.ar     1 ZINC000049745945   -0.1500
28     C28     4.6405   -1.3043  -12.6823 C.2      1 ZINC000049745945    0.5600
29     O29     5.1987   -2.3795  -12.5783 O.2      1 ZINC000049745945   -0.5300
30     N30     5.2659   -0.2762  -13.2892 N.am     1 ZINC000049745945   -0.6100
31     C31     4.6630    1.0650  -13.3149 C.3      1 ZINC000049745945    0.1000
32     C32     5.7033    2.0760  -12.8210 C.3      1 ZINC000049745945    0.0400
33     N33     6.9338    1.9329  -13.6107 N.3      1 ZINC000049745945   -0.5400
34     C34     7.8943    2.9958  -13.2859 C.3      1 ZINC000049745945    0.0200
35     C35     7.5348    0.6054  -13.4249 C.3      1 ZINC000049745945    0.0400
36     C36     6.5723   -0.4644  -13.9382 C.3      1 ZINC000049745945    0.1200
37     C37     2.3382   -0.3723  -12.8533 C.ar     1 ZINC000049745945   -0.0700
38     C38     1.0666   -0.2119  -12.3511 C.ar     1 ZINC000049745945   -0.1500
39     C39    -1.3280    0.4957   -6.7031 C.ar     1 ZINC000049745945   -0.1300
40     C40    -1.5272    0.6947   -5.3541 C.ar     1 ZINC000049745945   -0.0400
41     N41    -1.9721    1.0617   -2.5934 N.ar     1 ZINC000049745945   -0.5400
42     C42    -2.1332    1.2742   -1.2917 C.ar     1 ZINC000049745945    0.3300
43     H43     0.2805    4.8051   -1.0425 H        1 ZINC000049745945    0.0900
44     H44    -1.2178    4.2186   -1.8037 H        1 ZINC000049745945    0.0600
45     H45    -1.2039    4.6399   -0.0743 H        1 ZINC000049745945    0.0700
46     H46     0.3469    2.3468   -1.3601 H        1 ZINC000049745945    0.1100
47     H47     0.3607    2.7681    0.3692 H        1 ZINC000049745945    0.1100
48     H48    -4.1202   -2.3833   -0.0314 H        1 ZINC000049745945    0.0600
49     H49    -4.2145   -0.9826    1.0642 H        1 ZINC000049745945    0.1100
50     H50    -5.6857   -2.8669    1.8057 H        1 ZINC000049745945    0.1100
51     H51    -6.6140   -1.3952    1.4270 H        1 ZINC000049745945    0.0700
52     H52    -7.7285   -2.7460   -1.7790 H        1 ZINC000049745945    0.1100
53     H53    -7.8339   -1.3230   -0.7137 H        1 ZINC000049745945    0.0600
54     H54    -6.2861   -0.8600   -2.5709 H        1 ZINC000049745945    0.1000
55     H55    -5.3368   -2.3113   -2.1662 H        1 ZINC000049745945    0.0700
56     H56    -4.3431   -1.1570   -4.9533 H        1 ZINC000049745945    0.1400
57     H57    -3.9861   -1.4983   -7.3612 H        1 ZINC000049745945    0.1300
58     H58    -2.7750   -0.5834   -9.3905 H        1 ZINC000049745945    0.4100
59     H59    -1.3236   -0.5603  -11.2302 H        1 ZINC000049745945    0.4100
60     H60     1.3795   -1.9895   -9.4820 H        1 ZINC000049745945    0.1400
61     H61     3.6489   -2.2902  -10.3732 H        1 ZINC000049745945    0.1400
62     H62     4.3658    1.3135  -14.3337 H        1 ZINC000049745945    0.0800
63     H63     3.7914    1.0873  -12.6606 H        1 ZINC000049745945    0.1000
64     H64     5.3121    3.0867  -12.9372 H        1 ZINC000049745945    0.0900
65     H65     5.9220    1.8887  -11.7697 H        1 ZINC000049745945    0.0400
66     H66     8.1501    2.9434  -12.2276 H        1 ZINC000049745945    0.0300
67     H67     8.7960    2.8660  -13.8845 H        1 ZINC000049745945    0.0700
68     H68     7.4496    3.9666  -13.5045 H        1 ZINC000049745945    0.0700
69     H69     8.4718    0.5496  -13.9790 H        1 ZINC000049745945    0.0900
70     H70     7.7279    0.4386  -12.3652 H        1 ZINC000049745945    0.0400
71     H71     6.9628   -1.4535  -13.6988 H        1 ZINC000049745945    0.1000
72     H72     6.4561   -0.3650  -15.0174 H        1 ZINC000049745945    0.0800
73     H73     2.6080    0.0796  -13.7963 H        1 ZINC000049745945    0.1400
74     H74     0.3397    0.3694  -12.8989 H        1 ZINC000049745945    0.1300
75     H75    -0.4853    0.9558   -7.1977 H        1 ZINC000049745945    0.1400
76     H76    -0.8389    1.3073   -4.7907 H        1 ZINC000049745945    0.1400
@<TRIPOS>BOND
1     1     2     1
2     1     43    1
3     1     44    1
4     1     45    1
5     2     3     1
6     2     46    1
7     2     47    1
8     3     42    1
9     3     4     1
10    4     5     2
11    5     6     1
12    6     42    ar
13    6     7     ar
14    7     8     1
15    7     14    ar
16    8     13    1
17    8     9     1
18    9     10    1
19    9     48    1
20    9     49    1
21    10    11    1
22    10    50    1
23    10    51    1
24    11    12    1
25    12    13    1
26    12    52    1
27    12    53    1
28    13    54    1
29    13    55    1
30    14    15    ar
31    15    16    1
32    15    41    ar
33    16    40    ar
34    16    17    ar
35    17    18    ar
36    17    56    1
37    18    19    ar
38    18    57    1
39    19    20    1
40    19    39    ar
41    20    21    am
42    20    58    1
43    21    22    2
44    21    23    am
45    23    24    1
46    23    59    1
47    24    38    ar
48    24    25    ar
49    25    26    ar
50    25    60    1
51    26    27    ar
52    26    61    1
53    27    28    1
54    27    37    ar
55    28    29    2
56    28    30    am
57    30    36    1
58    30    31    1
59    31    32    1
60    31    62    1
61    31    63    1
62    32    33    1
63    32    64    1
64    32    65    1
65    33    34    1
66    33    35    1
67    34    66    1
68    34    67    1
69    34    68    1
70    35    36    1
71    35    69    1
72    35    70    1
73    36    71    1
74    36    72    1
75    37    38    ar
76    37    73    1
77    38    74    1
78    39    40    ar
79    39    75    1
80    40    76    1
81    41    42    ar
@<TRIPOS>SUBSTRUCTURE
1   ZINC000049745945 1     RESIDUE    1   A     ZIN   1


@<TRIPOS>MOLECULE
CC1=NC2=C(N=C(N=C2N1C(C)C)N3CCOCC3)C4=CN=C(N=C4)N
  48   51    0    0    0
SMALL
USER_CHARGES
NO_NAME
@<TRIPOS>ATOM
    1 C1       -0.0547     1.5138     0.0227 C.3    1 <0>      -0.0800
    2 C2       -0.0107     0.0076     0.0049 C.2    1 <0>       0.2800
    3 N3       -0.0897    -0.7289    -1.0654 N.2    1 <0>      -0.4600
    4 C4       -0.0169    -2.0363    -0.7202 C.ar   1 <0>      -0.1000
    5 C5       -0.0477    -3.2494    -1.4318 C.ar   1 <0>       0.3500
    6 C6       -0.1868    -3.2590    -2.9053 C.ar   1 <0>      -0.2300
    7 C7       -0.9650    -2.2975    -3.5588 C.ar   1 <0>       0.2500
    8 N8       -1.0642    -2.3399    -4.8750 N.ar   1 <0>      -0.5700
    9 C9       -0.4388    -3.2764    -5.5748 C.ar   1 <0>       0.5800
   10 N10      -0.5684    -3.2852    -6.9507 N.pl3  1 <0>      -0.8100
   11 N11       0.3076    -4.2046    -4.9923 N.ar   1 <0>      -0.5700
   12 C12       0.4613    -4.2264    -3.6809 C.ar   1 <0>       0.2400
   13 N13       0.0515    -4.3885    -0.7500 N.ar   1 <0>      -0.5600
   14 C14       0.1768    -4.3882     0.5695 C.ar   1 <0>       0.6000
   15 N15       0.2764    -5.6012     1.2315 N.pl3  1 <0>      -0.5900
   16 C16       0.4108    -5.6562     2.6958 C.3    1 <0>       0.1000
   17 C17      -0.6365    -6.6338     3.2411 C.3    1 <0>       0.0500
   18 O18      -0.5256    -7.8783     2.5463 O.3    1 <0>      -0.3800
   19 C19      -0.7891    -7.7910     1.1439 C.3    1 <0>       0.0500
   20 C20       0.2447    -6.8728     0.4917 C.3    1 <0>       0.0900
   21 N21       0.2105    -3.2699     1.2771 N.ar   1 <0>      -0.5700
   22 C22       0.1176    -2.0883     0.6798 C.ar   1 <0>       0.3400
   23 N23       0.1236    -0.7842     1.1072 N.pl3  1 <0>      -0.4700
   24 C24       0.2494    -0.3266     2.4932 C.3    1 <0>       0.1400
   25 C25      -0.8472    -0.9700     3.3443 C.3    1 <0>      -0.1700
   26 C26       1.6209    -0.7277     3.0402 C.3    1 <0>      -0.1700
   27 H27       0.9619     1.9070     0.0237 H      1 <0>       0.0900
   28 H28      -0.5821     1.8724    -0.8613 H      1 <0>       0.1000
   29 H29      -0.5758     1.8515     0.9185 H      1 <0>       0.0800
   30 H30      -1.4775    -1.5319    -2.9951 H      1 <0>       0.1800
   31 H31      -1.1109    -2.6123    -7.3910 H      1 <0>       0.4200
   32 H32      -0.1168    -3.9641    -7.4760 H      1 <0>       0.4200
   33 H33       1.0711    -4.9852    -3.2132 H      1 <0>       0.1700
   34 H34       1.4097    -6.0033     2.9600 H      1 <0>       0.0700
   35 H35       0.2426    -4.6652     3.1174 H      1 <0>       0.1000
   36 H36      -0.4651    -6.7946     4.3055 H      1 <0>       0.1100
   37 H37      -1.6337    -6.2204     3.0906 H      1 <0>       0.0500
   38 H38      -0.7275    -8.7844     0.6994 H      1 <0>       0.1100
   39 H39      -1.7869    -7.3818     0.9857 H      1 <0>       0.0600
   40 H40      -0.0312    -6.6885    -0.5466 H      1 <0>       0.1100
   41 H41       1.2286    -7.3400     0.5332 H      1 <0>       0.0800
   42 H42       0.1473     0.7581     2.5285 H      1 <0>       0.1100
   43 H43      -0.7536    -0.6296     4.3755 H      1 <0>       0.0800
   44 H44      -1.8242    -0.6843     2.9546 H      1 <0>       0.0600
   45 H45      -0.7450    -2.0547     3.3091 H      1 <0>       0.0800
   46 H46       2.4002    -0.2040     2.4866 H      1 <0>       0.0600
   47 H47       1.6833    -0.4614     4.0954 H      1 <0>       0.0800
   48 H48       1.7562    -1.8035     2.9284 H      1 <0>       0.0700
@<TRIPOS>BOND
   1    1    2 1
   2    1   27 1
   3    1   28 1
   4    1   29 1
   5    2   23 1
   6    2    3 2
   7    3    4 1
   8    4   22 ar
   9    4    5 ar
  10    5    6 1
  11    5   13 ar
  12    6   12 ar
  13    6    7 ar
  14    7    8 ar
  15    7   30 1
  16    8    9 ar
  17    9   10 1
  18    9   11 ar
  19   10   31 1
  20   10   32 1
  21   11   12 ar
  22   12   33 1
  23   13   14 ar
  24   14   15 1
  25   14   21 ar
  26   15   20 1
  27   15   16 1
  28   16   17 1
  29   16   34 1
  30   16   35 1
  31   17   18 1
  32   17   36 1
  33   17   37 1
  34   18   19 1
  35   19   20 1
  36   19   38 1
  37   19   39 1
  38   20   40 1
  39   20   41 1
  40   21   22 ar
  41   22   23 1
  42   23   24 1
  43   24   25 1
  44   24   26 1
  45   24   42 1
  46   25   43 1
  47   25   44 1
  48   25   45 1
  49   26   46 1
  50   26   47 1
  51   26   48 1


@<TRIPOS>MOLECULE
C1CN(CCC1N2C3=C(C=N2)C(=NC(=N3)C4=CC5=C(C=C4)NC=C5)N6CCOCC6)CC7=CN=CC=C7
68    74    1     0     0
SMALL
USER_CHARGES
@<TRIPOS>ATOM
1      C1     -0.0165    1.3642    0.0095 C.2      1 ZINC000045315610    0.0500
2      C2      1.2386    1.8395    0.0001 C.2      1 ZINC000045315610   -0.2000
3      C3      2.1346    0.6799   -0.0147 C.ar     1 ZINC000045315610   -0.1300
4      C4      3.5198    0.5276   -0.0294 C.ar     1 ZINC000045315610    0.0000
5      C5      4.0655   -0.7500   -0.0422 C.ar     1 ZINC000045315610   -0.0900
6      C6      5.5369   -0.9260   -0.0574 C.ar     1 ZINC000045315610    0.4600
7      N7      6.0342   -2.1591   -0.0748 N.ar     1 ZINC000045315610   -0.5700
8      C8      7.3440   -2.3699   -0.0890 C.ar     1 ZINC000045315610    0.4600
9      N9      7.8525   -3.6540   -0.1075 N.3      1 ZINC000045315610   -0.4700
10     C10     8.7430   -3.8514   -1.2606 C.3      1 ZINC000045315610    0.0200
11     C11     9.3295   -5.2646   -1.2094 C.3      1 ZINC000045315610    0.0600
12     O12     8.2632   -6.2171   -1.1795 O.3      1 ZINC000045315610   -0.3800
13     C13     7.3768   -6.0544   -0.0690 C.3      1 ZINC000045315610    0.0600
14     C14     6.7705   -4.6492   -0.1086 C.3      1 ZINC000045315610    0.0300
15     C15     8.2048   -1.2539   -0.0851 C.ar     1 ZINC000045315610   -0.3000
16     C16     9.6057   -1.0837   -0.0961 C.2      1 ZINC000045315610    0.1300
17     N17     9.8671    0.1925   -0.0850 N.2      1 ZINC000045315610   -0.2600
18     N18     8.6703    0.9196   -0.0665 N.pl3    1 ZINC000045315610   -0.3900
19     C19     8.5528    2.3798   -0.0501 C.3      1 ZINC000045315610    0.1700
20     C20     9.2505    2.9357    1.1947 C.3      1 ZINC000045315610   -0.1600
21     C21     9.1932    4.4645    1.1649 C.3      1 ZINC000045315610    0.0000
22     N22     9.8704    4.9597   -0.0395 N.4      1 ZINC000045315610   -0.3800
23     H23    10.8199    4.6187   -0.0546 H        1 ZINC000045315610    0.4200
24     C24     9.8795    6.4286   -0.0255 C.3      1 ZINC000045315610    0.0500
25     C25    10.4637    6.9398   -1.3171 C.ar     1 ZINC000045315610   -0.2200
26     C26    11.8275    7.1609   -1.4317 C.ar     1 ZINC000045315610   -0.0500
27     C27    12.3207    7.6312   -2.6394 C.ar     1 ZINC000045315610   -0.1600
28     C28    11.4427    7.8621   -3.6812 C.ar     1 ZINC000045315610    0.1400
29     N29    10.1507    7.6405   -3.5363 N.ar     1 ZINC000045315610   -0.4700
30     C30     9.6474    7.1886   -2.4045 C.ar     1 ZINC000045315610    0.1300
31     C31     9.1641    4.4892   -1.2371 C.3      1 ZINC000045315610   -0.0100
32     C32     9.2202    2.9613   -1.2997 C.3      1 ZINC000045315610   -0.1500
33     C33     7.6330    0.0342   -0.0664 C.ar     1 ZINC000045315610    0.3700
34     N34     6.3076    0.1499   -0.0585 N.ar     1 ZINC000045315610   -0.5600
35     C35     3.2277   -1.8709   -0.0402 C.ar     1 ZINC000045315610   -0.0500
36     C36     1.8708   -1.7262   -0.0258 C.ar     1 ZINC000045315610   -0.1400
37     C37     1.3017   -0.4556   -0.0128 C.ar     1 ZINC000045315610    0.1200
38     N38     0.0021   -0.0041    0.0020 N.pl3    1 ZINC000045315610   -0.5900
39     H39    -0.9092    1.9718    0.0254 H        1 ZINC000045315610    0.1700
40     H40     1.5324    2.8788    0.0026 H        1 ZINC000045315610    0.1500
41     H41     4.1634    1.3949   -0.0312 H        1 ZINC000045315610    0.1300
42     H42     8.1768   -3.7255   -2.1834 H        1 ZINC000045315610    0.0600
43     H43     9.5509   -3.1205   -1.2259 H        1 ZINC000045315610    0.1000
44     H44     9.9453   -5.4353   -2.0925 H        1 ZINC000045315610    0.1100
45     H45     9.9398   -5.3732   -0.3128 H        1 ZINC000045315610    0.0700
46     H46     6.5804   -6.7962   -0.1272 H        1 ZINC000045315610    0.1100
47     H47     7.9303   -6.1859    0.8608 H        1 ZINC000045315610    0.0600
48     H48     6.1385   -4.5006    0.7670 H        1 ZINC000045315610    0.1000
49     H49     6.1728   -4.5360   -1.0130 H        1 ZINC000045315610    0.0700
50     H50    10.3377   -1.8777   -0.1105 H        1 ZINC000045315610    0.2000
51     H51     7.4997    2.6607   -0.0351 H        1 ZINC000045315610    0.1200
52     H52     8.7456    2.5699    2.0888 H        1 ZINC000045315610    0.1200
53     H53    10.2908    2.6106    1.2047 H        1 ZINC000045315610    0.1000
54     H54     8.1525    4.7886    1.1552 H        1 ZINC000045315610    0.1400
55     H55     9.6889    4.8636    2.0499 H        1 ZINC000045315610    0.1400
56     H56     8.8595    6.7973    0.0829 H        1 ZINC000045315610    0.1400
57     H57    10.4837    6.7802    0.8109 H        1 ZINC000045315610    0.1400
58     H58    12.4900    6.9718   -0.6000 H        1 ZINC000045315610    0.1500
59     H59    13.3776    7.8150   -2.7641 H        1 ZINC000045315610    0.1500
60     H60    11.8188    8.2288   -4.6249 H        1 ZINC000045315610    0.1700
61     H61     8.5839    7.0190   -2.3233 H        1 ZINC000045315610    0.1600
62     H62     8.1240    4.8127   -1.1956 H        1 ZINC000045315610    0.1400
63     H63     9.6382    4.9065   -2.1255 H        1 ZINC000045315610    0.1400
64     H64    10.2599    2.6367   -1.3416 H        1 ZINC000045315610    0.1000
65     H65     8.6937    2.6139   -2.1886 H        1 ZINC000045315610    0.1200
66     H66     3.6594   -2.8608   -0.0506 H        1 ZINC000045315610    0.1400
67     H67     1.2363   -2.6002   -0.0248 H        1 ZINC000045315610    0.1300
68     H68    -0.7845   -0.5716    0.0066 H        1 ZINC000045315610    0.4200
@<TRIPOS>BOND
1     1     38    1
2     1     2     2
3     1     39    1
4     2     3     1
5     2     40    1
6     3     37    ar
7     3     4     ar
8     4     5     ar
9     4     41    1
10    5     6     1
11    5     35    ar
12    6     34    ar
13    6     7     ar
14    7     8     ar
15    8     9     1
16    8     15    ar
17    9     14    1
18    9     10    1
19    10    11    1
20    10    42    1
21    10    43    1
22    11    12    1
23    11    44    1
24    11    45    1
25    12    13    1
26    13    14    1
27    13    46    1
28    13    47    1
29    14    48    1
30    14    49    1
31    15    33    ar
32    15    16    1
33    16    17    2
34    16    50    1
35    17    18    1
36    18    19    1
37    18    33    1
38    19    32    1
39    19    20    1
40    19    51    1
41    20    21    1
42    20    52    1
43    20    53    1
44    21    22    1
45    21    54    1
46    21    55    1
47    22    23    1
48    22    24    1
49    22    31    1
50    24    25    1
51    24    56    1
52    24    57    1
53    25    30    ar
54    25    26    ar
55    26    27    ar
56    26    58    1
57    27    28    ar
58    27    59    1
59    28    29    ar
60    28    60    1
61    29    30    ar
62    30    61    1
63    31    32    1
64    31    62    1
65    31    63    1
66    32    64    1
67    32    65    1
68    33    34    ar
69    35    36    ar
70    35    66    1
71    36    37    ar
72    36    67    1
73    37    38    1
74    38    68    1
@<TRIPOS>SUBSTRUCTURE
1   ZINC000045315610 1     RESIDUE    1   A     ZIN   1


@<TRIPOS>MOLECULE
COC(=O)NC1=CC=C(C=C1)C2=NC3=C(C=NN3C4CCN(CC4)CC5=CN=CC=C5)C(=N2)N6CCOCC6
72    77    1     0     0
SMALL
USER_CHARGES
@<TRIPOS>ATOM
1      C1      0.9677    1.1727   -0.7442 C.3      1 ZINC000043067855    0.0500
2      O2      0.4665   -0.1327   -0.3529 O.3      1 ZINC000043067855   -0.3600
3      C3      1.0896   -0.7446    0.6719 C.2      1 ZINC000043067855    0.6500
4      O4      2.0265   -0.2026    1.2241 O.2      1 ZINC000043067855   -0.5500
5      N5      0.6742   -1.9583    1.0852 N.am     1 ZINC000043067855   -0.6500
6      C6      1.3792   -2.6355    2.0833 C.ar     1 ZINC000043067855    0.1900
7      C7      1.9668   -1.9234    3.1227 C.ar     1 ZINC000043067855   -0.1300
8      C8      2.6624   -2.5890    4.1086 C.ar     1 ZINC000043067855   -0.0400
9      C9      2.7767   -3.9786    4.0631 C.ar     1 ZINC000043067855   -0.0800
10     C10     3.5236   -4.6968    5.1219 C.ar     1 ZINC000043067855    0.4600
11     N11     3.6214   -6.0212    5.0509 N.ar     1 ZINC000043067855   -0.5700
12     C12     4.2797   -6.7104    5.9737 C.ar     1 ZINC000043067855    0.4600
13     N13     4.3770   -8.0858    5.8923 N.3      1 ZINC000043067855   -0.4700
14     C14     5.7830   -8.5155    5.8950 C.3      1 ZINC000043067855    0.0200
15     C15     5.8436  -10.0450    5.8640 C.3      1 ZINC000043067855    0.0600
16     O16     5.1338  -10.5220    4.7176 O.3      1 ZINC000043067855   -0.3800
17     C17     3.7610  -10.1225    4.6831 C.3      1 ZINC000043067855    0.0600
18     C18     3.6793   -8.5938    4.7022 C.3      1 ZINC000043067855    0.0300
19     C19     4.8778   -6.0074    7.0389 C.ar     1 ZINC000043067855   -0.3000
20     C20     5.6341   -6.3802    8.1705 C.2      1 ZINC000043067855    0.1300
21     N21     5.9394   -5.3031    8.8367 N.2      1 ZINC000043067855   -0.2600
22     N22     5.4084   -4.1806    8.1889 N.pl3    1 ZINC000043067855   -0.3900
23     C23     5.5396   -2.7908    8.6331 C.3      1 ZINC000043067855    0.1700
24     C24     4.9263   -2.6390   10.0281 C.3      1 ZINC000043067855   -0.1600
25     C25     5.1372   -1.2050   10.5188 C.3      1 ZINC000043067855    0.0000
26     N26     6.5740   -0.9113   10.5798 N.4      1 ZINC000043067855   -0.3800
27     H27     7.0287   -1.5843   11.1785 H        1 ZINC000043067855    0.4200
28     C28     6.7737    0.4388   11.1232 C.3      1 ZINC000043067855    0.0500
29     C29     8.2385    0.7892   11.0723 C.ar     1 ZINC000043067855   -0.2200
30     C30     9.0703    0.4856   12.1389 C.ar     1 ZINC000043067855   -0.0500
31     C31    10.4114    0.8263   12.0479 C.ar     1 ZINC000043067855   -0.1600
32     C32    10.8709    1.4527   10.9051 C.ar     1 ZINC000043067855    0.1400
33     N33    10.0505    1.7263    9.9094 N.ar     1 ZINC000043067855   -0.4700
34     C34     8.7708    1.4123    9.9592 C.ar     1 ZINC000043067855    0.1300
35     C35     7.1550   -0.9847    9.2339 C.3      1 ZINC000043067855   -0.0100
36     C36     7.0217   -2.4102    8.6937 C.3      1 ZINC000043067855   -0.1500
37     C37     4.7482   -4.6043    7.0733 C.ar     1 ZINC000043067855    0.3700
38     N38     4.0736   -3.9963    6.1012 N.ar     1 ZINC000043067855   -0.5600
39     C39     2.1861   -4.6908    3.0190 C.ar     1 ZINC000043067855   -0.0400
40     C40     1.4871   -4.0208    2.0384 C.ar     1 ZINC000043067855   -0.1500
41     H41     2.0114    1.0856   -1.0460 H        1 ZINC000043067855    0.0700
42     H42     0.3786    1.5527   -1.5789 H        1 ZINC000043067855    0.1100
43     H43     0.8892    1.8596    0.0985 H        1 ZINC000043067855    0.0700
44     H44    -0.1144   -2.3616    0.6897 H        1 ZINC000043067855    0.4200
45     H45     1.8784   -0.8476    3.1573 H        1 ZINC000043067855    0.1500
46     H46     3.1190   -2.0353    4.9157 H        1 ZINC000043067855    0.1400
47     H47     6.2882   -8.1134    5.0169 H        1 ZINC000043067855    0.0700
48     H48     6.2735   -8.1501    6.7972 H        1 ZINC000043067855    0.1000
49     H49     6.8834  -10.3670    5.8082 H        1 ZINC000043067855    0.1100
50     H50     5.3858  -10.4458    6.7683 H        1 ZINC000043067855    0.0700
51     H51     3.2947  -10.5006    3.7733 H        1 ZINC000043067855    0.1100
52     H52     3.2427  -10.5256    5.5531 H        1 ZINC000043067855    0.0600
53     H53     2.6343   -8.2856    4.7337 H        1 ZINC000043067855    0.1000
54     H54     4.1509   -8.1929    3.8050 H        1 ZINC000043067855    0.0700
55     H55     5.9123   -7.3885    8.4393 H        1 ZINC000043067855    0.2000
56     H56     5.0230   -2.1341    7.9331 H        1 ZINC000043067855    0.1200
57     H57     3.8588   -2.8545    9.9818 H        1 ZINC000043067855    0.1200
58     H58     5.4090   -3.3336   10.7155 H        1 ZINC000043067855    0.1000
59     H59     4.6539   -0.5113    9.8309 H        1 ZINC000043067855    0.1400
60     H60     4.7015   -1.0935   11.5117 H        1 ZINC000043067855    0.1400
61     H61     6.2076    1.1567   10.5296 H        1 ZINC000043067855    0.1400
62     H62     6.4285    0.4693   12.1566 H        1 ZINC000043067855    0.1400
63     H63     8.6829   -0.0043   13.0201 H        1 ZINC000043067855    0.1500
64     H64    11.0881    0.6052   12.8600 H        1 ZINC000043067855    0.1500
65     H65    11.9140    1.7216   10.8265 H        1 ZINC000043067855    0.1700
66     H66     8.1295    1.6524    9.1241 H        1 ZINC000043067855    0.1600
67     H67     6.6287   -0.2957    8.5734 H        1 ZINC000043067855    0.1400
68     H68     8.2090   -0.7105    9.2781 H        1 ZINC000043067855    0.1400
69     H69     7.5479   -3.1001    9.3534 H        1 ZINC000043067855    0.1000
70     H70     7.4520   -2.4622    7.6936 H        1 ZINC000043067855    0.1200
71     H71     2.2732   -5.7666    2.9815 H        1 ZINC000043067855    0.1400
72     H72     1.0294   -4.5718    1.2301 H        1 ZINC000043067855    0.1400
@<TRIPOS>BOND
1     1     2     1
2     1     41    1
3     1     42    1
4     1     43    1
5     2     3     1
6     3     4     2
7     3     5     am
8     5     6     1
9     5     44    1
10    6     40    ar
11    6     7     ar
12    7     8     ar
13    7     45    1
14    8     9     ar
15    8     46    1
16    9     10    1
17    9     39    ar
18    10    38    ar
19    10    11    ar
20    11    12    ar
21    12    13    1
22    12    19    ar
23    13    18    1
24    13    14    1
25    14    15    1
26    14    47    1
27    14    48    1
28    15    16    1
29    15    49    1
30    15    50    1
31    16    17    1
32    17    18    1
33    17    51    1
34    17    52    1
35    18    53    1
36    18    54    1
37    19    37    ar
38    19    20    1
39    20    21    2
40    20    55    1
41    21    22    1
42    22    23    1
43    22    37    1
44    23    36    1
45    23    24    1
46    23    56    1
47    24    25    1
48    24    57    1
49    24    58    1
50    25    26    1
51    25    59    1
52    25    60    1
53    26    27    1
54    26    28    1
55    26    35    1
56    28    29    1
57    28    61    1
58    28    62    1
59    29    34    ar
60    29    30    ar
61    30    31    ar
62    30    63    1
63    31    32    ar
64    31    64    1
65    32    33    ar
66    32    65    1
67    33    34    ar
68    34    66    1
69    35    36    1
70    35    67    1
71    35    68    1
72    36    69    1
73    36    70    1
74    37    38    ar
75    39    40    ar
76    39    71    1
77    40    72    1
@<TRIPOS>SUBSTRUCTURE
1   ZINC000043067855 1     RESIDUE    1   A     ZIN   1


@<TRIPOS>MOLECULE
COC1=C(OC)C=C2C(N=C(OC=C3)C3=C2OC4=CC=CN=C4)=C1
  38   41    0    0    0
SMALL
USER_CHARGES
NO_NAME
@<TRIPOS>ATOM
    1 C1       -0.0173     1.4248     0.0099 C.3    1 <0>       0.0200
    2 O2        0.0021    -0.0041     0.0020 O.3    1 <0>      -0.3000
    3 C3        0.6057    -0.6070    -1.0556 C.ar   1 <0>       0.1600
    4 C4        0.6501    -2.0076    -1.1200 C.ar   1 <0>       0.1300
    5 O5        0.0889    -2.7456    -0.1249 O.3    1 <0>      -0.3000
    6 C6        0.1671    -4.1671    -0.2485 C.3    1 <0>       0.0200
    7 C7        1.2503    -2.6363    -2.1712 C.ar   1 <0>      -0.1700
    8 C8        1.8295    -1.8736    -3.1990 C.ar   1 <0>      -0.1100
    9 C9        1.7866    -0.4576    -3.1375 C.ar   1 <0>       0.2000
   10 C10       1.1551     0.1585    -2.0425 C.ar   1 <0>      -0.1800
   11 N11       2.3339     0.2813    -4.1084 N.ar   1 <0>      -0.4600
   12 C12       2.9295    -0.2672    -5.1510 C.ar   1 <0>       0.3100
   13 O13       3.5413     0.2591    -6.2332 O.3    1 <0>      -0.1900
   14 C14       4.0072    -0.7091    -7.0434 C.2    1 <0>       0.0400
   15 C15       3.7257    -1.9151    -6.5359 C.2    1 <0>      -0.2000
   16 C16       3.0093    -1.6708    -5.2774 C.ar   1 <0>      -0.1800
   17 C17       2.4579    -2.4937    -4.2989 C.ar   1 <0>       0.1800
   18 O18       2.5235    -3.8437    -4.3994 O.3    1 <0>      -0.2400
   19 C19       3.5973    -4.4726    -3.8536 C.ar   1 <0>       0.0700
   20 C20       3.7197    -5.8563    -3.9319 C.ar   1 <0>      -0.1000
   21 C21       4.8324    -6.4523    -3.3603 C.ar   1 <0>      -0.1300
   22 C22       5.7768    -5.6594    -2.7359 C.ar   1 <0>       0.0700
   23 N23       5.6308    -4.3499    -2.6790 N.ar   1 <0>      -0.4500
   24 C24       4.5904    -3.7434    -3.2149 C.ar   1 <0>       0.0400
   25 H25       1.0053     1.8021     0.0021 H      1 <0>       0.0600
   26 H26      -0.5445     1.7859    -0.8732 H      1 <0>       0.0600
   27 H27      -0.5275     1.7763     0.9067 H      1 <0>       0.1100
   28 H28      -0.3176    -4.6336     0.6091 H      1 <0>       0.1100
   29 H29      -0.3346    -4.4804    -1.1641 H      1 <0>       0.0600
   30 H30       1.2130    -4.4717    -0.2849 H      1 <0>       0.0600
   31 H31       1.2804    -3.7151    -2.2129 H      1 <0>       0.1500
   32 H32       1.1123     1.2358    -1.9786 H      1 <0>       0.1600
   33 H33       4.5330    -0.5375    -7.9711 H      1 <0>       0.2200
   34 H34       3.9751    -2.8742    -6.9651 H      1 <0>       0.1700
   35 H35       2.9658    -6.4513    -4.4259 H      1 <0>       0.1500
   36 H36       4.9601    -7.5240    -3.4018 H      1 <0>       0.1500
   37 H37       6.6459    -6.1184    -2.2883 H      1 <0>       0.1600
   38 H38       4.5053    -2.6689    -3.1481 H      1 <0>       0.1500
@<TRIPOS>BOND
   1    1    2 1
   2    1   25 1
   3    1   26 1
   4    1   27 1
   5    2    3 1
   6    3   10 ar
   7    3    4 ar
   8    4    5 1
   9    4    7 ar
  10    5    6 1
  11    6   28 1
  12    6   29 1
  13    6   30 1
  14    7    8 ar
  15    7   31 1
  16    8   17 ar
  17    8    9 ar
  18    9   10 ar
  19    9   11 ar
  20   10   32 1
  21   11   12 ar
  22   12   16 ar
  23   12   13 1
  24   13   14 1
  25   14   15 2
  26   14   33 1
  27   15   16 1
  28   15   34 1
  29   16   17 ar
  30   17   18 1
  31   18   19 1
  32   19   24 ar
  33   19   20 ar
  34   20   21 ar
  35   20   35 1
  36   21   22 ar
  37   21   36 1
  38   22   23 ar
  39   22   37 1
  40   23   24 ar
  41   24   38 1


@<TRIPOS>MOLECULE
CC(C)N1C2=NC=NC(N)=C2C(C3=CC(C(NC4=NCCS4)=O)=CC=C3)=N1
  46   49    0    0    0
SMALL
USER_CHARGES
NO_NAME
@<TRIPOS>ATOM
    1 C1        0.3471    -2.5632     0.7980 C.3    1 <0>      -0.1600
    2 C2       -0.3719    -2.4365    -0.5466 C.3    1 <0>       0.1600
    3 C3       -0.6883    -3.8316    -1.0891 C.3    1 <0>      -0.1600
    4 N4       -1.6186    -1.6888    -0.3651 N.pl3  1 <0>      -0.3700
    5 N5       -2.6721    -2.0658     0.4744 N.2    1 <0>      -0.2200
    6 C6       -3.6368    -1.1793     0.4054 C.2    1 <0>       0.1600
    7 C7       -4.9216    -1.2203     1.1444 C.ar   1 <0>      -0.0200
    8 C8       -6.1175    -0.9432     0.4822 C.ar   1 <0>      -0.0800
    9 C9       -7.3160    -0.9812     1.1682 C.ar   1 <0>      -0.1200
   10 C10      -7.3388    -1.2932     2.5125 C.ar   1 <0>      -0.0700
   11 C11      -6.1480    -1.5723     3.1875 C.ar   1 <0>      -0.1300
   12 C12      -6.1731    -1.9059     4.6272 C.2    1 <0>       0.5600
   13 O13      -5.1362    -2.1484     5.2128 O.2    1 <0>      -0.4600
   14 N14      -7.3458    -1.9412     5.2905 N.am   1 <0>      -0.6300
   15 C15      -7.3692    -2.2529     6.6358 C.2    1 <0>       0.4000
   16 N16      -6.3354    -2.5189     7.3479 N.2    1 <0>      -0.5200
   17 C17      -6.4884    -2.8317     8.7513 C.3    1 <0>       0.0500
   18 C18      -7.9655    -2.7877     9.1732 C.3    1 <0>      -0.1100
   19 S19      -8.8268    -2.3369     7.6321 S.3    1 <0>      -0.1900
   20 C20      -4.9369    -1.5409     2.4985 C.ar   1 <0>      -0.0200
   21 C21      -3.2110    -0.1431    -0.5350 C.ar   1 <0>      -0.3200
   22 C22      -3.7773     1.0436    -1.0287 C.ar   1 <0>       0.5200
   23 N23      -5.0294     1.4560    -0.6155 N.pl3  1 <0>      -0.8300
   24 N24      -3.0780     1.7603    -1.9032 N.ar   1 <0>      -0.6000
   25 C25      -1.8800     1.3710    -2.3015 C.ar   1 <0>       0.3900
   26 N26      -1.3106     0.2681    -1.8671 N.ar   1 <0>      -0.5700
   27 C27      -1.9297    -0.5145    -0.9837 C.ar   1 <0>       0.3800
   28 H28       1.2747    -3.1195     0.6630 H      1 <0>       0.0800
   29 H29       0.5726    -1.5693     1.1845 H      1 <0>       0.0600
   30 H30      -0.2936    -3.0910     1.5043 H      1 <0>       0.0700
   31 H31       0.2688    -1.9087    -1.2529 H      1 <0>       0.1100
   32 H32      -1.3291    -4.3595    -0.3828 H      1 <0>       0.0700
   33 H33      -1.2006    -3.7414    -2.0470 H      1 <0>       0.0600
   34 H34       0.2392    -4.3880    -1.2241 H      1 <0>       0.0800
   35 H35      -6.1065    -0.6980    -0.5696 H      1 <0>       0.1400
   36 H36      -8.2389    -0.7654     0.6506 H      1 <0>       0.1400
   37 H37      -8.2789    -1.3213     3.0435 H      1 <0>       0.1300
   38 H38      -8.1734    -1.7476     4.8230 H      1 <0>       0.4200
   39 H39      -6.0924    -3.8295     8.9402 H      1 <0>       0.1100
   40 H40      -5.9263    -2.1084     9.3420 H      1 <0>       0.1100
   41 H41      -8.2930    -3.7642     9.5298 H      1 <0>       0.1100
   42 H42      -8.1251    -2.0253     9.9357 H      1 <0>       0.1100
   43 H43      -4.0133    -1.7562     3.0152 H      1 <0>       0.1500
   44 H44      -5.4311     1.0670     0.1771 H      1 <0>       0.4100
   45 H45      -5.5068     2.1346    -1.1180 H      1 <0>       0.4100
   46 H46      -1.3466     1.9835    -3.0134 H      1 <0>       0.2100
@<TRIPOS>BOND
   1    1    2 1
   2    1   28 1
   3    1   29 1
   4    1   30 1
   5    2    3 1
   6    2    4 1
   7    2   31 1
   8    3   32 1
   9    3   33 1
  10    3   34 1
  11    4   27 1
  12    4    5 1
  13    5    6 2
  14    6    7 1
  15    6   21 1
  16    7   20 ar
  17    7    8 ar
  18    8    9 ar
  19    8   35 1
  20    9   10 ar
  21    9   36 1
  22   10   11 ar
  23   10   37 1
  24   11   12 1
  25   11   20 ar
  26   12   13 2
  27   12   14 am
  28   14   15 1
  29   14   38 1
  30   15   19 1
  31   15   16 2
  32   16   17 1
  33   17   18 1
  34   17   39 1
  35   17   40 1
  36   18   19 1
  37   18   41 1
  38   18   42 1
  39   20   43 1
  40   21   27 ar
  41   21   22 ar
  42   22   23 1
  43   22   24 ar
  44   23   44 1
  45   23   45 1
  46   24   25 ar
  47   25   26 ar
  48   25   46 1
  49   26   27 ar


@<TRIPOS>MOLECULE
OC1=CC(C=C(C2=NN(C(C)C)C3=C2C(N)=NC=N3)N4)=C4C=C1
39    42    1     0     0
SMALL
USER_CHARGES
@<TRIPOS>ATOM
1      C1      0.3153    1.0283   -0.5117 C.3      1 ZINC000036056301   -0.1600
2      C2      0.1232   -0.4547   -0.1881 C.3      1 ZINC000036056301    0.1600
3      C3      0.7442   -1.3037   -1.2992 C.3      1 ZINC000036056301   -0.1600
4      N4      0.7760   -0.7650    1.0862 N.pl3    1 ZINC000036056301   -0.3700
5      N5      2.1384   -0.5994    1.3572 N.2      1 ZINC000036056301   -0.2100
6      C6      2.3960   -0.9698    2.5912 C.2      1 ZINC000036056301    0.1800
7      C7      3.7153   -0.9451    3.2552 C.2      1 ZINC000036056301    0.1300
8      C8      4.6316    0.0492    3.1388 C.2      1 ZINC000036056301   -0.1300
9      C9      5.7818   -0.3327    3.9561 C.ar     1 ZINC000036056301   -0.0900
10     C10     7.0128    0.2693    4.2335 C.ar     1 ZINC000036056301   -0.0900
11     C11     7.9094   -0.3653    5.0697 C.ar     1 ZINC000036056301    0.0800
12     O12     9.1082    0.2155    5.3430 O.3      1 ZINC000036056301   -0.5000
13     C13     7.5911   -1.5974    5.6347 C.ar     1 ZINC000036056301   -0.1100
14     C14     6.3812   -2.2003    5.3687 C.ar     1 ZINC000036056301   -0.1100
15     C15     5.4638   -1.5788    4.5290 C.ar     1 ZINC000036056301    0.1000
16     N16     4.2015   -1.9238    4.0912 N.pl3    1 ZINC000036056301   -0.5900
17     C17     1.1334   -1.4108    3.1865 C.ar     1 ZINC000036056301   -0.3300
18     C18     0.7483   -1.9098    4.4410 C.ar     1 ZINC000036056301    0.5200
19     N19     1.6756   -2.0772    5.4515 N.pl3    1 ZINC000036056301   -0.8300
20     N20    -0.5312   -2.2168    4.6326 N.ar     1 ZINC000036056301   -0.6000
21     C21    -1.4221   -2.0584    3.6702 C.ar     1 ZINC000036056301    0.3900
22     N22    -1.1075   -1.5948    2.4805 N.ar     1 ZINC000036056301   -0.5700
23     C23     0.1487   -1.2543    2.1935 C.ar     1 ZINC000036056301    0.3800
24     H24     1.3801    1.2491   -0.5857 H        1 ZINC000036056301    0.0700
25     H25    -0.1704    1.2592   -1.4598 H        1 ZINC000036056301    0.0800
26     H26    -0.1271    1.6332    0.2799 H        1 ZINC000036056301    0.0600
27     H27    -0.9416   -0.6755   -0.1141 H        1 ZINC000036056301    0.1100
28     H28     1.8090   -1.0829   -1.3732 H        1 ZINC000036056301    0.0700
29     H29     0.6074   -2.3602   -1.0686 H        1 ZINC000036056301    0.0600
30     H30     0.2585   -1.0729   -2.2473 H        1 ZINC000036056301    0.0800
31     H31     4.5304    0.9511    2.5533 H        1 ZINC000036056301    0.1600
32     H32     7.2610    1.2250    3.7959 H        1 ZINC000036056301    0.1300
33     H33     9.0973    0.7945    6.1174 H        1 ZINC000036056301    0.3900
34     H34     8.2996   -2.0854    6.2875 H        1 ZINC000036056301    0.1400
35     H35     6.1454   -3.1563    5.8124 H        1 ZINC000036056301    0.1300
36     H36     3.7283   -2.7345    4.3356 H        1 ZINC000036056301    0.4200
37     H37     2.5737   -1.7252    5.3489 H        1 ZINC000036056301    0.4100
38     H38     1.4285   -2.5466    6.2636 H        1 ZINC000036056301    0.4100
39     H39    -2.4508   -2.3207    3.8685 H        1 ZINC000036056301    0.2100
@<TRIPOS>BOND
1     1     2     1
2     1     24    1
3     1     25    1
4     1     26    1
5     2     3     1
6     2     4     1
7     2     27    1
8     3     28    1
9     3     29    1
10    3     30    1
11    4     23    1
12    4     5     1
13    5     6     2
14    6     7     1
15    6     17    1
16    7     16    1
17    7     8     2
18    8     9     1
19    8     31    1
20    9     15    ar
21    9     10    ar
22    10    11    ar
23    10    32    1
24    11    12    1
25    11    13    ar
26    12    33    1
27    13    14    ar
28    13    34    1
29    14    15    ar
30    14    35    1
31    15    16    1
32    16    36    1
33    17    23    ar
34    17    18    ar
35    18    19    1
36    18    20    ar
37    19    37    1
38    19    38    1
39    20    21    ar
40    21    22    ar
41    21    39    1
42    22    23    ar
@<TRIPOS>SUBSTRUCTURE
1   ZINC000036056301 1     RESIDUE    1   A     ZIN   1


@<TRIPOS>MOLECULE
CC(C)N1C2=NC=NC(N)=C2C(C3=CC(O)=C(Br)C=C3)=N1
35    37    1     0     0
SMALL
USER_CHARGES
@<TRIPOS>ATOM
1      C1      0.4047    0.7165    0.7744 C.3      1 ZINC000008581906   -0.1600
2      C2      0.2054   -0.7201    0.2871 C.3      1 ZINC000008581906    0.1600
3      C3      0.8799   -1.6874    1.2619 C.3      1 ZINC000008581906   -0.1600
4      N4     -1.2273   -1.0176    0.2168 N.pl3    1 ZINC000008581906   -0.3700
5      N5     -2.1167   -0.9684    1.2954 N.2      1 ZINC000008581906   -0.2200
6      C6     -3.3235   -1.2904    0.8936 C.2      1 ZINC000008581906    0.1600
7      C7     -4.5415   -1.3548    1.7364 C.ar     1 ZINC000008581906    0.0100
8      C8     -5.4127   -2.4373    1.6242 C.ar     1 ZINC000008581906   -0.1200
9      C9     -6.5460   -2.4953    2.4103 C.ar     1 ZINC000008581906   -0.0700
10     C10    -6.8205   -1.4817    3.3101 C.ar     1 ZINC000008581906   -0.1100
11     Br11   -8.3751   -1.5689    4.3831 Br       1 ZINC000008581906   -0.0300
12     C12    -5.9571   -0.3998    3.4282 C.ar     1 ZINC000008581906    0.1400
13     O13    -6.2304    0.5941    4.3142 O.3      1 ZINC000008581906   -0.4800
14     C14    -4.8158   -0.3362    2.6470 C.ar     1 ZINC000008581906   -0.1100
15     C15    -3.2455   -1.5737   -0.5392 C.ar     1 ZINC000008581906   -0.3200
16     C16    -4.1660   -1.9612   -1.5267 C.ar     1 ZINC000008581906    0.5200
17     N17    -5.4974   -2.1586   -1.2151 N.pl3    1 ZINC000008581906   -0.8300
18     N18    -3.7241   -2.1328   -2.7688 N.ar     1 ZINC000008581906   -0.6000
19     C19    -2.4522   -1.9450   -3.0726 C.ar     1 ZINC000008581906    0.3900
20     N20    -1.5552   -1.5828   -2.1819 N.ar     1 ZINC000008581906   -0.5700
21     C21    -1.9019   -1.3798   -0.9111 C.ar     1 ZINC000008581906    0.3800
22     H22     1.4706    0.9379    0.8267 H        1 ZINC000008581906    0.0800
23     H23    -0.0759    1.4056    0.0799 H        1 ZINC000008581906    0.0600
24     H24    -0.0389    0.8294    1.7636 H        1 ZINC000008581906    0.0700
25     H25     0.6490   -0.8330   -0.7021 H        1 ZINC000008581906    0.1100
26     H26     0.7380   -2.7109    0.9148 H        1 ZINC000008581906    0.0600
27     H27     1.9459   -1.4661    1.3143 H        1 ZINC000008581906    0.0800
28     H28     0.4364   -1.5745    2.2512 H        1 ZINC000008581906    0.0700
29     H29    -5.2012   -3.2303    0.9221 H        1 ZINC000008581906    0.1400
30     H30    -7.2202   -3.3344    2.3221 H        1 ZINC000008581906    0.1500
31     H31    -5.8551    0.4511    5.1938 H        1 ZINC000008581906    0.4000
32     H32    -4.1437    0.5043    2.7378 H        1 ZINC000008581906    0.1500
33     H33    -5.8563   -1.8166   -0.3814 H        1 ZINC000008581906    0.4100
34     H34    -6.0733   -2.6392   -1.8302 H        1 ZINC000008581906    0.4100
35     H35    -2.1361   -2.0955   -4.0942 H        1 ZINC000008581906    0.2100
@<TRIPOS>BOND
1     1     2     1
2     1     22    1
3     1     23    1
4     1     24    1
5     2     3     1
6     2     4     1
7     2     25    1
8     3     26    1
9     3     27    1
10    3     28    1
11    4     21    1
12    4     5     1
13    5     6     2
14    6     7     1
15    6     15    1
16    7     14    ar
17    7     8     ar
18    8     9     ar
19    8     29    1
20    9     10    ar
21    9     30    1
22    10    11    1
23    10    12    ar
24    12    13    1
25    12    14    ar
26    13    31    1
27    14    32    1
28    15    21    ar
29    15    16    ar
30    16    17    1
31    16    18    ar
32    17    33    1
33    17    34    1
34    18    19    ar
35    19    20    ar
36    19    35    1
37    20    21    ar
@<TRIPOS>SUBSTRUCTURE
1   ZINC000008581906 1     RESIDUE    1   A     ZIN   1


@<TRIPOS>MOLECULE
OC1=CC=CC(C2=NC(N3CCOCC3)=C4C(N(C5CCNCC5)N=C4)=N2)=C1
  53   57    0    0    0
SMALL
USER_CHARGES
NO_NAME
@<TRIPOS>ATOM
    1 O1       -0.3349     1.3487     0.0227 O.3    1 <0>      -0.5000
    2 C2       -0.3127    -0.0102     0.0156 C.ar   1 <0>       0.0900
    3 C3       -0.4089    -0.6994    -1.1853 C.ar   1 <0>      -0.1100
    4 C4       -0.3868    -2.0818    -1.1976 C.ar   1 <0>      -0.1100
    5 C5       -0.2689    -2.7844    -0.0156 C.ar   1 <0>      -0.0700
    6 C6       -0.1714    -2.0999     1.1952 C.ar   1 <0>      -0.0400
    7 C7       -0.0441    -2.8523     2.4666 C.ar   1 <0>       0.4400
    8 N8       -0.0201    -4.1809     2.4246 N.ar   1 <0>      -0.5400
    9 C9        0.0923    -4.8999     3.5340 C.ar   1 <0>       0.5300
   10 N10       0.1169    -6.2800     3.4817 N.pl3  1 <0>      -0.6700
   11 C11      -1.1263    -7.0633     3.5603 C.3    1 <0>       0.1100
   12 C12      -1.1431    -8.0617     2.3971 C.3    1 <0>       0.0400
   13 O13       0.0775    -8.8060     2.3981 O.3    1 <0>      -0.3800
   14 C14       1.2479    -8.0112     2.1925 C.3    1 <0>       0.0500
   15 C15       1.3866    -7.0100     3.3395 C.3    1 <0>       0.1100
   16 C16       0.1863    -4.2236     4.7669 C.ar   1 <0>      -0.2900
   17 C17       0.3124    -4.6300     6.1123 C.2    1 <0>       0.1300
   18 N18       0.3558    -3.5663     6.8631 N.2    1 <0>      -0.2500
   19 N19       0.2621    -2.4199     6.0640 N.pl3  1 <0>      -0.3900
   20 C20       0.2755    -1.0356     6.5433 C.3    1 <0>       0.1700
   21 C21      -0.8948    -0.8157     7.5062 C.3    1 <0>      -0.1600
   22 C22      -0.8287     0.6076     8.0641 C.3    1 <0>       0.0000
   23 N23       0.4384     0.7980     8.7801 N.4    1 <0>      -0.5100
   24 H24       0.4557     1.7190     9.1919 H      1 <0>       0.4400
   25 H25       0.5200     0.1038     9.5077 H      1 <0>       0.4300
   26 C26       1.5633     0.6595     7.8473 C.3    1 <0>       0.0000
   27 C27       1.5892    -0.7619     7.2812 C.3    1 <0>      -0.1600
   28 C28       0.1566    -2.8144     4.7627 C.ar   1 <0>       0.3600
   29 N29       0.0467    -2.1765     3.6005 N.ar   1 <0>      -0.5400
   30 C30      -0.1884    -0.7070     1.2064 C.ar   1 <0>      -0.0900
   31 H31       0.5380     1.7567    -0.0584 H      1 <0>       0.3900
   32 H32      -0.5016    -0.1542    -2.1130 H      1 <0>       0.1400
   33 H33      -0.4623    -2.6132    -2.1347 H      1 <0>       0.1400
   34 H34      -0.2527    -3.8642    -0.0285 H      1 <0>       0.1400
   35 H35      -1.1614    -7.6022     4.5071 H      1 <0>       0.0700
   36 H36      -1.9855    -6.3969     3.4845 H      1 <0>       0.0800
   37 H37      -1.9854    -8.7434     2.5147 H      1 <0>       0.1100
   38 H38      -1.2395    -7.5217     1.4552 H      1 <0>       0.0600
   39 H39       2.1257    -8.6567     2.1628 H      1 <0>       0.1100
   40 H40       1.1601    -7.4710     1.2498 H      1 <0>       0.0600
   41 H41       2.1921    -6.3094     3.1198 H      1 <0>       0.0800
   42 H42       1.6040    -7.5412     4.2661 H      1 <0>       0.0700
   43 H43       0.3637    -5.6510     6.4609 H      1 <0>       0.2000
   44 H44       0.1847    -0.3557     5.6962 H      1 <0>       0.1200
   45 H45      -1.8356    -0.9545     6.9734 H      1 <0>       0.1200
   46 H46      -0.8311    -1.5313     8.3260 H      1 <0>       0.1000
   47 H47      -0.8928     1.3223     7.2435 H      1 <0>       0.1400
   48 H48      -1.6607     0.7676     8.7499 H      1 <0>       0.1400
   49 H49       1.4482     1.3730     7.0315 H      1 <0>       0.1400
   50 H50       2.4972     0.8577     8.3732 H      1 <0>       0.1400
   51 H51       1.7045    -1.4763     8.0963 H      1 <0>       0.1000
   52 H52       2.4240    -0.8622     6.5875 H      1 <0>       0.1200
   53 H53      -0.1127    -0.1720     2.1416 H      1 <0>       0.1400
@<TRIPOS>BOND
   1    1    2 1
   2    1   31 1
   3    2   30 ar
   4    2    3 ar
   5    3    4 ar
   6    3   32 1
   7    4    5 ar
   8    4   33 1
   9    5    6 ar
  10    5   34 1
  11    6    7 1
  12    6   30 ar
  13    7   29 ar
  14    7    8 ar
  15    8    9 ar
  16    9   10 1
  17    9   16 ar
  18   10   15 1
  19   10   11 1
  20   11   12 1
  21   11   35 1
  22   11   36 1
  23   12   13 1
  24   12   37 1
  25   12   38 1
  26   13   14 1
  27   14   15 1
  28   14   39 1
  29   14   40 1
  30   15   41 1
  31   15   42 1
  32   16   28 ar
  33   16   17 1
  34   17   18 2
  35   17   43 1
  36   18   19 1
  37   19   20 1
  38   19   28 1
  39   20   27 1
  40   20   21 1
  41   20   44 1
  42   21   22 1
  43   21   45 1
  44   21   46 1
  45   22   23 1
  46   22   47 1
  47   22   48 1
  48   23   24 1
  49   23   25 1
  50   23   26 1
  51   26   27 1
  52   26   49 1
  53   26   50 1
  54   27   51 1
  55   27   52 1
  56   28   29 ar
  57   30   53 1


@<TRIPOS>MOLECULE
O=C(NC1=CC=NC=C1)NC(C=C2)=CC=C2C3=NC(N4CCOCC4)=NC(N5CCOCC5)=N3
60    64    1     0     0
SMALL
USER_CHARGES
@<TRIPOS>ATOM
1      O1     -0.2038    0.5074   -1.3740 O.2      1 ZINC000045355644   -0.5500
2      C2     -0.1609    1.5155   -0.6957 C.2      1 ZINC000045355644    0.7100
3      N3      0.9634    2.2580   -0.6624 N.am     1 ZINC000045355644   -0.6800
4      C4      2.1090    1.8194   -1.3272 C.ar     1 ZINC000045355644    0.2000
5      C5      2.0143    1.1169   -2.5276 C.ar     1 ZINC000045355644   -0.1700
6      C6      3.1709    0.7006   -3.1536 C.ar     1 ZINC000045355644    0.1200
7      N7      4.3543    0.9593   -2.6300 N.ar     1 ZINC000045355644   -0.5000
8      C8      4.4854    1.6213   -1.4958 C.ar     1 ZINC000045355644    0.1200
9      C9      3.3781    2.0773   -0.8112 C.ar     1 ZINC000045355644   -0.2000
10     N10    -1.2395    1.8935    0.0186 N.am     1 ZINC000045355644   -0.6800
11     C11    -2.3683    1.0730    0.0656 C.ar     1 ZINC000045355644    0.1900
12     C12    -2.2233   -0.3095    0.0312 C.ar     1 ZINC000045355644   -0.1300
13     C13    -3.3355   -1.1213    0.0775 C.ar     1 ZINC000045355644   -0.0400
14     C14    -4.6080   -0.5551    0.1590 C.ar     1 ZINC000045355644   -0.0800
15     C15    -5.8055   -1.4256    0.2094 C.ar     1 ZINC000045355644    0.4600
16     N16    -5.6681   -2.7487    0.1826 N.ar     1 ZINC000045355644   -0.6000
17     C17    -6.7431   -3.5293    0.2283 C.ar     1 ZINC000045355644    0.5600
18     N18    -6.6008   -4.9019    0.2004 N.3      1 ZINC000045355644   -0.4500
19     C19    -7.2408   -5.5218    1.3698 C.3      1 ZINC000045355644    0.0300
20     C20    -7.1115   -7.0439    1.2685 C.3      1 ZINC000045355644    0.0600
21     O21    -5.7291   -7.3936    1.1590 O.3      1 ZINC000045355644   -0.3800
22     C22    -5.0746   -6.8076    0.0305 C.3      1 ZINC000045355644    0.0600
23     C23    -5.1833   -5.2830    0.1192 C.3      1 ZINC000045355644    0.0300
24     N24    -7.9551   -2.9883    0.3013 N.ar     1 ZINC000045355644   -0.5800
25     C25    -8.0930   -1.6665    0.3282 C.ar     1 ZINC000045355644    0.5600
26     N26    -9.3519   -1.1057    0.4045 N.3      1 ZINC000045355644   -0.4500
27     C27   -10.2031   -1.5693   -0.7008 C.3      1 ZINC000045355644    0.0300
28     C28   -11.6039   -0.9716   -0.5444 C.3      1 ZINC000045355644    0.0600
29     O29   -11.5057    0.4544   -0.4981 O.3      1 ZINC000045355644   -0.3800
30     C30   -10.6845    0.9407    0.5670 C.3      1 ZINC000045355644    0.0600
31     C31    -9.2744    0.3623    0.4219 C.3      1 ZINC000045355644    0.0300
32     N32    -7.0187   -0.8848    0.2872 N.ar     1 ZINC000045355644   -0.6000
33     C33    -4.7508    0.8323    0.1934 C.ar     1 ZINC000045355644   -0.0400
34     C34    -3.6351    1.6397    0.1526 C.ar     1 ZINC000045355644   -0.1600
35     H35     0.9762    3.0973   -0.1762 H        1 ZINC000045355644    0.4100
36     H36     1.0490    0.9013   -2.9611 H        1 ZINC000045355644    0.1500
37     H37     3.1071    0.1558   -4.0839 H        1 ZINC000045355644    0.1600
38     H38     5.4723    1.8120   -1.1009 H        1 ZINC000045355644    0.1600
39     H39     3.4924    2.6187    0.1163 H        1 ZINC000045355644    0.1400
40     H40    -1.2316    2.7356    0.5000 H        1 ZINC000045355644    0.4100
41     H41    -1.2380   -0.7472   -0.0323 H        1 ZINC000045355644    0.1400
42     H42    -3.2224   -2.1950    0.0504 H        1 ZINC000045355644    0.1400
43     H43    -6.7509   -5.1746    2.2795 H        1 ZINC000045355644    0.0600
44     H44    -8.2953   -5.2470    1.3959 H        1 ZINC000045355644    0.1100
45     H45    -7.5340   -7.5053    2.1611 H        1 ZINC000045355644    0.1100
46     H46    -7.6471   -7.3969    0.3872 H        1 ZINC000045355644    0.0700
47     H47    -4.0240   -7.0980    0.0277 H        1 ZINC000045355644    0.1100
48     H48    -5.5510   -7.1536   -0.8868 H        1 ZINC000045355644    0.0600
49     H49    -4.7358   -4.8340   -0.7675 H        1 ZINC000045355644    0.1000
50     H50    -4.6605   -4.9321    1.0090 H        1 ZINC000045355644    0.0700
51     H51    -9.7742   -1.2481   -1.6500 H        1 ZINC000045355644    0.0600
52     H52   -10.2671   -2.6572   -0.6793 H        1 ZINC000045355644    0.1100
53     H53   -12.2222   -1.2665   -1.3923 H        1 ZINC000045355644    0.1100
54     H54   -12.0539   -1.3356    0.3792 H        1 ZINC000045355644    0.0700
55     H55   -10.6379    2.0288    0.5230 H        1 ZINC000045355644    0.1100
56     H56   -11.1078    0.6322    1.5229 H        1 ZINC000045355644    0.0600
57     H57    -8.6605    0.6845    1.2630 H        1 ZINC000045355644    0.1000
58     H58    -8.8307    0.7145   -0.5093 H        1 ZINC000045355644    0.0700
59     H59    -5.7348    1.2730    0.2561 H        1 ZINC000045355644    0.1400
60     H60    -3.7450    2.7137    0.1792 H        1 ZINC000045355644    0.1400
@<TRIPOS>BOND
1     1     2     2
2     2     3     am
3     2     10    am
4     3     4     1
5     3     35    1
6     4     9     ar
7     4     5     ar
8     5     6     ar
9     5     36    1
10    6     7     ar
11    6     37    1
12    7     8     ar
13    8     9     ar
14    8     38    1
15    9     39    1
16    10    11    1
17    10    40    1
18    11    34    ar
19    11    12    ar
20    12    13    ar
21    12    41    1
22    13    14    ar
23    13    42    1
24    14    15    1
25    14    33    ar
26    15    32    ar
27    15    16    ar
28    16    17    ar
29    17    18    1
30    17    24    ar
31    18    23    1
32    18    19    1
33    19    20    1
34    19    43    1
35    19    44    1
36    20    21    1
37    20    45    1
38    20    46    1
39    21    22    1
40    22    23    1
41    22    47    1
42    22    48    1
43    23    49    1
44    23    50    1
45    24    25    ar
46    25    26    1
47    25    32    ar
48    26    31    1
49    26    27    1
50    27    28    1
51    27    51    1
52    27    52    1
53    28    29    1
54    28    53    1
55    28    54    1
56    29    30    1
57    30    31    1
58    30    55    1
59    30    56    1
60    31    57    1
61    31    58    1
62    33    34    ar
63    33    59    1
64    34    60    1
@<TRIPOS>SUBSTRUCTURE
1   ZINC000045355644 1     RESIDUE    1   A     ZIN   1


@<TRIPOS>MOLECULE
O=C(NC1=CC=C(C(N2CCC(N(C)C)CC2)=O)C=C1)NC(C=C3)=CC=C3C4=NC(N5CCOCC5)=NC(N6CCOCC6)=N4
87    92    1     0     0
SMALL
USER_CHARGES
@<TRIPOS>ATOM
1      C1     -9.9371   -1.1856    4.9420 C.3      1 ZINC000049757175   -0.0500
2      N2     -9.3150   -2.4906    4.6810 N.4      1 ZINC000049757175   -0.3900
3      H3     -8.4251   -2.5396    5.1540 H        1 ZINC000049757175    0.4300
4      C4    -10.1926   -3.5593    5.1767 C.3      1 ZINC000049757175   -0.0500
5      C5     -9.1110   -2.6555    3.2356 C.3      1 ZINC000049757175    0.0200
6      C6     -8.1981   -1.5410    2.7191 C.3      1 ZINC000049757175   -0.1600
7      C7     -8.0155   -1.6960    1.2060 C.3      1 ZINC000049757175    0.1200
8      N8     -7.5289   -3.0535    0.9250 N.am     1 ZINC000049757175   -0.6200
9      C9     -6.4113   -3.2453    0.1965 C.2      1 ZINC000049757175    0.5700
10     O10    -5.8384   -2.2945   -0.2997 O.2      1 ZINC000049757175   -0.5100
11     C11    -5.8828   -4.6093    0.0010 C.ar     1 ZINC000049757175   -0.1600
12     C12    -6.7459   -5.6512   -0.3495 C.ar     1 ZINC000049757175   -0.0800
13     C13    -6.2496   -6.9222   -0.5315 C.ar     1 ZINC000049757175   -0.1200
14     C14    -4.8905   -7.1703   -0.3670 C.ar     1 ZINC000049757175    0.1900
15     N15    -4.3911   -8.4587   -0.5526 N.am     1 ZINC000049757175   -0.6800
16     C16    -4.9221   -9.2573   -1.4995 C.2      1 ZINC000049757175    0.7100
17     O17    -5.8888   -8.8855   -2.1362 O.2      1 ZINC000049757175   -0.5500
18     N18    -4.3814  -10.4681   -1.7407 N.am     1 ZINC000049757175   -0.6800
19     C19    -4.8614  -11.2499   -2.7933 C.ar     1 ZINC000049757175    0.1900
20     C20    -5.3017  -10.6426   -3.9641 C.ar     1 ZINC000049757175   -0.1300
21     C21    -5.7758  -11.4118   -5.0043 C.ar     1 ZINC000049757175   -0.0400
22     C22    -5.8133  -12.8011   -4.8822 C.ar     1 ZINC000049757175   -0.0700
23     C23    -6.3221  -13.6305   -5.9991 C.ar     1 ZINC000049757175    0.4600
24     N24    -6.7387  -13.0513   -7.1221 N.ar     1 ZINC000049757175   -0.6000
25     C25    -7.1952  -13.7963   -8.1240 C.ar     1 ZINC000049757175    0.5600
26     N26    -7.6270  -13.1956   -9.2893 N.3      1 ZINC000049757175   -0.4500
27     C27    -6.8991  -13.7205  -10.4537 C.3      1 ZINC000049757175    0.0300
28     C28    -7.4492  -13.0728  -11.7271 C.3      1 ZINC000049757175    0.0600
29     O29    -7.3419  -11.6509  -11.6174 O.3      1 ZINC000049757175   -0.3800
30     C30    -8.0397  -11.1058  -10.4944 C.3      1 ZINC000049757175    0.0600
31     C31    -7.4956  -11.7336   -9.2084 C.3      1 ZINC000049757175    0.0300
32     N32    -7.2354  -15.1194   -8.0041 N.ar     1 ZINC000049757175   -0.5800
33     C33    -6.8193  -15.6987   -6.8825 C.ar     1 ZINC000049757175    0.5600
34     N34    -6.8615  -17.0728   -6.7588 N.3      1 ZINC000049757175   -0.4500
35     C35    -8.2226  -17.5805   -6.9843 C.3      1 ZINC000049757175    0.0300
36     C36    -8.2123  -19.1090   -6.8971 C.3      1 ZINC000049757175    0.0600
37     O37    -7.6902  -19.5054   -5.6261 O.3      1 ZINC000049757175   -0.3800
38     C38    -6.3657  -19.0286   -5.3736 C.3      1 ZINC000049757175    0.0600
39     C39    -6.3573  -17.4993   -5.4454 C.3      1 ZINC000049757175    0.0300
40     N40    -6.3575  -14.9554   -5.8818 N.ar     1 ZINC000049757175   -0.6000
41     C41    -5.3705  -13.4080   -3.7065 C.ar     1 ZINC000049757175   -0.0400
42     C42    -4.8928  -12.6346   -2.6712 C.ar     1 ZINC000049757175   -0.1500
43     C43    -4.0285   -6.1353   -0.0181 C.ar     1 ZINC000049757175   -0.1500
44     C44    -4.5174   -4.8609    0.1603 C.ar     1 ZINC000049757175   -0.0400
45     C45    -8.2834   -4.1981    1.4537 C.3      1 ZINC000049757175    0.1000
46     C46    -8.4629   -4.0150    2.9640 C.3      1 ZINC000049757175   -0.1600
47     H47   -10.0885   -1.0633    6.0144 H        1 ZINC000049757175    0.1300
48     H48    -9.2859   -0.3927    4.5741 H        1 ZINC000049757175    0.1300
49     H49   -10.8984   -1.1327    4.4309 H        1 ZINC000049757175    0.1200
50     H50   -11.1539   -3.5063    4.6657 H        1 ZINC000049757175    0.1200
51     H51    -9.7310   -4.5276    4.9830 H        1 ZINC000049757175    0.1300
52     H52   -10.3440   -3.4369    6.2492 H        1 ZINC000049757175    0.1300
53     H53   -10.0724   -2.6030    2.7248 H        1 ZINC000049757175    0.1400
54     H54    -8.6493   -0.5723    2.9338 H        1 ZINC000049757175    0.1000
55     H55    -7.2279   -1.6081    3.2114 H        1 ZINC000049757175    0.0900
56     H56    -8.9707   -1.5392    0.7048 H        1 ZINC000049757175    0.0800
57     H57    -7.2890   -0.9661    0.8490 H        1 ZINC000049757175    0.1100
58     H58    -7.8011   -5.4594   -0.4770 H        1 ZINC000049757175    0.1300
59     H59    -6.9161   -7.7279   -0.8020 H        1 ZINC000049757175    0.1500
60     H60    -3.6615   -8.7803   -0.0001 H        1 ZINC000049757175    0.4100
61     H61    -3.6589  -10.7964   -1.1830 H        1 ZINC000049757175    0.4100
62     H62    -5.2725   -9.5671   -4.0581 H        1 ZINC000049757175    0.1400
63     H63    -6.1184  -10.9397   -5.9132 H        1 ZINC000049757175    0.1400
64     H64    -5.8388  -13.4873  -10.3555 H        1 ZINC000049757175    0.0600
65     H65    -7.0311  -14.8011  -10.5087 H        1 ZINC000049757175    0.1100
66     H66    -6.8746  -13.4159  -12.5875 H        1 ZINC000049757175    0.1100
67     H67    -8.4957  -13.3501  -11.8536 H        1 ZINC000049757175    0.0700
68     H68    -7.8922  -10.0263  -10.4631 H        1 ZINC000049757175    0.1100
69     H69    -9.1034  -11.3259  -10.5850 H        1 ZINC000049757175    0.0600
70     H70    -8.0630  -11.3638   -8.3544 H        1 ZINC000049757175    0.1000
71     H71    -6.4449  -11.4686   -9.0904 H        1 ZINC000049757175    0.0700
72     H72    -8.8921  -17.1771   -6.2246 H        1 ZINC000049757175    0.0600
73     H73    -8.5661  -17.2747   -7.9725 H        1 ZINC000049757175    0.1100
74     H74    -9.2288  -19.4867   -7.0069 H        1 ZINC000049757175    0.1100
75     H75    -7.5849  -19.5146   -7.6908 H        1 ZINC000049757175    0.0700
76     H76    -6.0468  -19.3481   -4.3815 H        1 ZINC000049757175    0.1100
77     H77    -5.6847  -19.4319   -6.1230 H        1 ZINC000049757175    0.0600
78     H78    -5.3392  -17.1342   -5.3102 H        1 ZINC000049757175    0.1000
79     H79    -6.9970  -17.0946   -4.6611 H        1 ZINC000049757175    0.0700
80     H80    -5.3985  -14.4833   -3.6096 H        1 ZINC000049757175    0.1400
81     H81    -4.5499  -13.1039   -1.7609 H        1 ZINC000049757175    0.1400
82     H82    -2.9741   -6.3313    0.1092 H        1 ZINC000049757175    0.1400
83     H83    -3.8477   -4.0579    0.4307 H        1 ZINC000049757175    0.1400
84     H84    -9.2603   -4.2453    0.9726 H        1 ZINC000049757175    0.0800
85     H85    -7.7335   -5.1191    1.2600 H        1 ZINC000049757175    0.1200
86     H86    -7.4902   -4.0588    3.4539 H        1 ZINC000049757175    0.0900
87     H87    -9.1027   -4.8072    3.3530 H        1 ZINC000049757175    0.1000
@<TRIPOS>BOND
1     1     2     1
2     1     47    1
3     1     48    1
4     1     49    1
5     2     3     1
6     2     4     1
7     2     5     1
8     4     50    1
9     4     51    1
10    4     52    1
11    5     46    1
12    5     6     1
13    5     53    1
14    6     7     1
15    6     54    1
16    6     55    1
17    7     8     1
18    7     56    1
19    7     57    1
20    8     9     am
21    8     45    1
22    9     10    2
23    9     11    1
24    11    44    ar
25    11    12    ar
26    12    13    ar
27    12    58    1
28    13    14    ar
29    13    59    1
30    14    15    1
31    14    43    ar
32    15    16    am
33    15    60    1
34    16    17    2
35    16    18    am
36    18    19    1
37    18    61    1
38    19    42    ar
39    19    20    ar
40    20    21    ar
41    20    62    1
42    21    22    ar
43    21    63    1
44    22    23    1
45    22    41    ar
46    23    40    ar
47    23    24    ar
48    24    25    ar
49    25    26    1
50    25    32    ar
51    26    31    1
52    26    27    1
53    27    28    1
54    27    64    1
55    27    65    1
56    28    29    1
57    28    66    1
58    28    67    1
59    29    30    1
60    30    31    1
61    30    68    1
62    30    69    1
63    31    70    1
64    31    71    1
65    32    33    ar
66    33    34    1
67    33    40    ar
68    34    39    1
69    34    35    1
70    35    36    1
71    35    72    1
72    35    73    1
73    36    37    1
74    36    74    1
75    36    75    1
76    37    38    1
77    38    39    1
78    38    76    1
79    38    77    1
80    39    78    1
81    39    79    1
82    41    42    ar
83    41    80    1
84    42    81    1
85    43    44    ar
86    43    82    1
87    44    83    1
88    45    46    1
89    45    84    1
90    45    85    1
91    46    86    1
92    46    87    1
@<TRIPOS>SUBSTRUCTURE
1   ZINC000049757175 1     RESIDUE    1   A     ZIN   1


@<TRIPOS>MOLECULE
OC(C(OC)=C1)=C(OC)C=C1C2=CN(C=N2)C3=NC(N4CCOCC4)=NC(N5CCOCC5)=N3
61    65    1     0     0
SMALL
USER_CHARGES
@<TRIPOS>ATOM
1      C1     -0.0173    1.4248    0.0099 C.3      1 ZINC000045253245    0.0200
2      O2      0.0021   -0.0041    0.0020 O.3      1 ZINC000045253245   -0.3000
3      C3     -1.2011   -0.6379    0.0101 C.ar     1 ZINC000045253245    0.1400
4      C4     -2.3722    0.1006    0.0195 C.ar     1 ZINC000045253245   -0.2000
5      C5     -3.6048   -0.5491    0.0278 C.ar     1 ZINC000045253245    0.0600
6      C6     -4.8607    0.2409    0.0374 C.2      1 ZINC000045253245    0.0500
7      C7     -6.1210   -0.2632    0.0515 C.2      1 ZINC000045253245    0.0000
8      N8     -6.9745    0.8106    0.0567 N.pl3    1 ZINC000045253245   -0.4000
9      C9     -8.3655    0.7601    0.0714 C.ar     1 ZINC000045253245    0.6300
10     N10    -8.9865   -0.4130    0.0875 N.ar     1 ZINC000045253245   -0.6200
11     C11   -10.3153   -0.4622    0.1019 C.ar     1 ZINC000045253245    0.5900
12     N12   -10.9607   -1.6820    0.1191 N.3      1 ZINC000045253245   -0.4500
13     C13   -11.8669   -1.7824    1.2723 C.3      1 ZINC000045253245    0.0300
14     C14   -12.6046   -3.1229    1.2197 C.3      1 ZINC000045253245    0.0600
15     O15   -11.6489   -4.1863    1.1879 O.3      1 ZINC000045253245   -0.3800
16     C16   -10.7505   -4.1200    0.0771 C.3      1 ZINC000045253245    0.0600
17     C17    -9.9940   -2.7896    0.1182 C.3      1 ZINC000045253245    0.0300
18     N18   -11.0217    0.6636    0.1003 N.ar     1 ZINC000045253245   -0.5800
19     C19   -10.3990    1.8377    0.0842 C.ar     1 ZINC000045253245    0.5900
20     N20   -11.1314    3.0075    0.0826 N.3      1 ZINC000045253245   -0.4500
21     C21   -12.0674    3.0414   -1.0506 C.3      1 ZINC000045253245    0.0300
22     C22   -12.8990    4.3249   -0.9804 C.3      1 ZINC000045253245    0.0600
23     O23   -12.0224    5.4549   -0.9682 O.3      1 ZINC000045253245   -0.3800
24     C24   -11.0976    5.4543    0.1228 C.3      1 ZINC000045253245    0.0600
25     C25   -10.2478    4.1823    0.0637 C.3      1 ZINC000045253245    0.0300
26     N26    -9.0700    1.8850    0.0749 N.ar     1 ZINC000045253245   -0.6200
27     C27    -6.2071    1.9348    0.0457 C.2      1 ZINC000045253245    0.2400
28     N28    -4.9516    1.5870    0.0397 N.2      1 ZINC000045253245   -0.4600
29     C29    -3.6567   -1.9416    0.0266 C.ar     1 ZINC000045253245   -0.2200
30     C30    -2.4839   -2.6774    0.0171 C.ar     1 ZINC000045253245    0.1400
31     O31    -2.5342   -4.0364    0.0159 O.3      1 ZINC000045253245   -0.3000
32     C32    -3.8306   -4.6376    0.0248 C.3      1 ZINC000045253245    0.0200
33     C33    -1.2547   -2.0274    0.0032 C.ar     1 ZINC000045253245    0.0400
34     O34    -0.1027   -2.7520   -0.0061 O.3      1 ZINC000045253245   -0.4700
35     H35     1.0053    1.8021    0.0021 H        1 ZINC000045253245    0.1000
36     H36    -0.5445    1.7859   -0.8732 H        1 ZINC000045253245    0.0600
37     H37    -0.5275    1.7763    0.9067 H        1 ZINC000045253245    0.0600
38     H38    -2.3303    1.1798    0.0208 H        1 ZINC000045253245    0.1500
39     H39    -6.3979   -1.3071    0.0571 H        1 ZINC000045253245    0.1900
40     H40   -11.2900   -1.7204    2.1950 H        1 ZINC000045253245    0.0600
41     H41   -12.5901   -0.9674    1.2390 H        1 ZINC000045253245    0.1100
42     H42   -13.2350   -3.2263    2.1028 H        1 ZINC000045253245    0.1100
43     H43   -13.2234   -3.1628    0.3233 H        1 ZINC000045253245    0.0700
44     H44   -10.0399   -4.9446    0.1340 H        1 ZINC000045253245    0.1100
45     H45   -11.3154   -4.1889   -0.8525 H        1 ZINC000045253245    0.0700
46     H46    -9.3500   -2.7099   -0.7576 H        1 ZINC000045253245    0.1000
47     H47    -9.3872   -2.7437    1.0225 H        1 ZINC000045253245    0.0700
48     H48   -11.5077    3.0211   -1.9857 H        1 ZINC000045253245    0.0600
49     H49   -12.7286    2.1762   -1.0026 H        1 ZINC000045253245    0.1100
50     H50   -13.5543    4.3820   -1.8495 H        1 ZINC000045253245    0.1100
51     H51   -13.4995    4.3202   -0.0707 H        1 ZINC000045253245    0.0700
52     H52   -10.4502    6.3283    0.0515 H        1 ZINC000045253245    0.1100
53     H53   -11.6457    5.4825    1.0645 H        1 ZINC000045253245    0.0700
54     H54    -9.5808    4.1499    0.9252 H        1 ZINC000045253245    0.1000
55     H55    -9.6590    4.1802   -0.8536 H        1 ZINC000045253245    0.0700
56     H56    -6.5782    2.9491    0.0459 H        1 ZINC000045253245    0.2200
57     H57    -4.6114   -2.4466    0.0334 H        1 ZINC000045253245    0.1400
58     H58    -4.3698   -4.3254    0.9191 H        1 ZINC000045253245    0.0600
59     H59    -4.3829   -4.3233   -0.8608 H        1 ZINC000045253245    0.0600
60     H60    -3.7278   -5.7228    0.0227 H        1 ZINC000045253245    0.1000
61     H61     0.2215   -2.9640   -0.8921 H        1 ZINC000045253245    0.3800
@<TRIPOS>BOND
1     1     2     1
2     1     35    1
3     1     36    1
4     1     37    1
5     2     3     1
6     3     33    ar
7     3     4     ar
8     4     5     ar
9     4     38    1
10    5     6     1
11    5     29    ar
12    6     28    1
13    6     7     2
14    7     8     1
15    7     39    1
16    8     9     1
17    8     27    1
18    9     26    ar
19    9     10    ar
20    10    11    ar
21    11    12    1
22    11    18    ar
23    12    17    1
24    12    13    1
25    13    14    1
26    13    40    1
27    13    41    1
28    14    15    1
29    14    42    1
30    14    43    1
31    15    16    1
32    16    17    1
33    16    44    1
34    16    45    1
35    17    46    1
36    17    47    1
37    18    19    ar
38    19    20    1
39    19    26    ar
40    20    25    1
41    20    21    1
42    21    22    1
43    21    48    1
44    21    49    1
45    22    23    1
46    22    50    1
47    22    51    1
48    23    24    1
49    24    25    1
50    24    52    1
51    24    53    1
52    25    54    1
53    25    55    1
54    27    28    2
55    27    56    1
56    29    30    ar
57    29    57    1
58    30    31    1
59    30    33    ar
60    31    32    1
61    32    58    1
62    32    59    1
63    32    60    1
64    33    34    1
65    34    61    1
@<TRIPOS>SUBSTRUCTURE
1   ZINC000045253245 1     RESIDUE    1   A     ZIN   1


@<TRIPOS>MOLECULE
OC(C(OC)=C1)=C(OC)C=C1/C=N/NC2=NC(N3CCOCC3)=NC(N4CCOCC4)=N2
59    62    1     0     0
SMALL
USER_CHARGES
@<TRIPOS>ATOM
1      C1     -0.0173    1.4248    0.0099 C.3      1 ZINC000006906035    0.0200
2      O2      0.0021   -0.0041    0.0020 O.3      1 ZINC000006906035   -0.3000
3      C3     -1.2011   -0.6379    0.0101 C.ar     1 ZINC000006906035    0.1400
4      C4     -2.3748    0.1005    0.0195 C.ar     1 ZINC000006906035   -0.2000
5      C5     -3.5982   -0.5428    0.0277 C.ar     1 ZINC000006906035   -0.0200
6      C6     -4.8712    0.2637    0.0379 C.3      1 ZINC000006906035    0.0600
7      N7     -5.2938    0.5266   -1.3400 N.2      1 ZINC000006906035   -0.1300
8      N8     -6.3967    0.1229   -1.7380 N.2      1 ZINC000006906035   -0.1800
9      C9     -6.7936    0.3698   -3.0323 C.ar     1 ZINC000006906035    0.5500
10     N10    -5.9925    1.0364   -3.8576 N.ar     1 ZINC000006906035   -0.5900
11     C11    -6.3764    1.2749   -5.1082 C.ar     1 ZINC000006906035    0.5700
12     N12    -5.5445    1.9665   -5.9654 N.3      1 ZINC000006906035   -0.4500
13     C13    -5.2700    1.1837   -7.1790 C.3      1 ZINC000006906035    0.0300
14     C14    -4.3950    2.0097   -8.1256 C.3      1 ZINC000006906035    0.0600
15     O15    -3.1965    2.3932   -7.4461 O.3      1 ZINC000006906035   -0.3800
16     C16    -3.4269    3.1578   -6.2596 C.3      1 ZINC000006906035    0.0600
17     C17    -4.2920    2.3433   -5.2941 C.3      1 ZINC000006906035    0.0300
18     N18    -7.5605    0.8470   -5.5330 N.ar     1 ZINC000006906035   -0.5700
19     C19    -8.3615    0.1807   -4.7082 C.ar     1 ZINC000006906035    0.5700
20     N20    -9.5912   -0.2640   -5.1498 N.3      1 ZINC000006906035   -0.4500
21     C21   -10.3981    0.8492   -5.6705 C.3      1 ZINC000006906035    0.0300
22     C22   -11.7261    0.3045   -6.2030 C.3      1 ZINC000006906035    0.0600
23     O23   -12.3960   -0.4081   -5.1595 O.3      1 ZINC000006906035   -0.3800
24     C24   -11.6388   -1.4996   -4.6297 C.3      1 ZINC000006906035    0.0600
25     C25   -10.3099   -0.9731   -4.0812 C.3      1 ZINC000006906035    0.0300
26     N26    -7.9759   -0.0629   -3.4591 N.ar     1 ZINC000006906035   -0.5600
27     C27    -3.6572   -1.9238    0.0261 C.ar     1 ZINC000006906035   -0.2200
28     C28    -2.4882   -2.6696    0.0168 C.ar     1 ZINC000006906035    0.1400
29     O29    -2.5472   -4.0282    0.0153 O.3      1 ZINC000006906035   -0.3000
30     C30    -3.8474   -4.6211    0.0237 C.3      1 ZINC000006906035    0.0200
31     C31    -1.2561   -2.0266    0.0032 C.ar     1 ZINC000006906035    0.0500
32     O32    -0.1065   -2.7549   -0.0060 O.3      1 ZINC000006906035   -0.4700
33     H33     1.0053    1.8021    0.0021 H        1 ZINC000006906035    0.1000
34     H34    -0.5445    1.7859   -0.8732 H        1 ZINC000006906035    0.0600
35     H35    -0.5275    1.7763    0.9067 H        1 ZINC000006906035    0.0600
36     H36    -2.3329    1.1797    0.0207 H        1 ZINC000006906035    0.1400
37     H37    -5.6507   -0.2943    0.5568 H        1 ZINC000006906035    0.0900
38     H38    -4.6981    1.2094    0.5515 H        1 ZINC000006906035    0.1300
39     H39    -4.7483    0.2653   -6.9096 H        1 ZINC000006906035    0.0600
40     H40    -6.2096    0.9375   -7.6737 H        1 ZINC000006906035    0.1100
41     H41    -4.1416    1.4123   -9.0014 H        1 ZINC000006906035    0.1100
42     H42    -4.9380    2.9019   -8.4375 H        1 ZINC000006906035    0.0700
43     H43    -2.4733    3.3907   -5.7858 H        1 ZINC000006906035    0.1100
44     H44    -3.9417    4.0834   -6.5172 H        1 ZINC000006906035    0.0600
45     H45    -4.5177    2.9437   -4.4128 H        1 ZINC000006906035    0.1000
46     H46    -3.7547    1.4436   -4.9945 H        1 ZINC000006906035    0.0700
47     H47   -10.5923    1.5634   -4.8702 H        1 ZINC000006906035    0.0600
48     H48    -9.8579    1.3440   -6.4776 H        1 ZINC000006906035    0.1100
49     H49   -12.3511    1.1324   -6.5377 H        1 ZINC000006906035    0.1100
50     H50   -11.5345   -0.3687   -7.0386 H        1 ZINC000006906035    0.0700
51     H51   -12.2007   -1.9764   -3.8265 H        1 ZINC000006906035    0.1100
52     H52   -11.4447   -2.2252   -5.4195 H        1 ZINC000006906035    0.0600
53     H53    -9.7053   -1.8085   -3.7282 H        1 ZINC000006906035    0.1000
54     H54   -10.5028   -0.2881   -3.2556 H        1 ZINC000006906035    0.0700
55     H55    -4.6151   -2.4227    0.0325 H        1 ZINC000006906035    0.1400
56     H56    -3.7517   -5.7069    0.0215 H        1 ZINC000006906035    0.1100
57     H57    -4.3849   -4.3056    0.9179 H        1 ZINC000006906035    0.0600
58     H58    -4.3975   -4.3031   -0.8620 H        1 ZINC000006906035    0.0600
59     H59     0.2172   -2.9677   -0.8921 H        1 ZINC000006906035    0.3800
@<TRIPOS>BOND
1     1     2     1
2     1     33    1
3     1     34    1
4     1     35    1
5     2     3     1
6     3     31    ar
7     3     4     ar
8     4     5     ar
9     4     36    1
10    5     6     1
11    5     27    ar
12    6     7     1
13    6     37    1
14    6     38    1
15    7     8     2
16    8     9     1
17    9     26    ar
18    9     10    ar
19    10    11    ar
20    11    12    1
21    11    18    ar
22    12    17    1
23    12    13    1
24    13    14    1
25    13    39    1
26    13    40    1
27    14    15    1
28    14    41    1
29    14    42    1
30    15    16    1
31    16    17    1
32    16    43    1
33    16    44    1
34    17    45    1
35    17    46    1
36    18    19    ar
37    19    20    1
38    19    26    ar
39    20    25    1
40    20    21    1
41    21    22    1
42    21    47    1
43    21    48    1
44    22    23    1
45    22    49    1
46    22    50    1
47    23    24    1
48    24    25    1
49    24    51    1
50    24    52    1
51    25    53    1
52    25    54    1
53    27    28    ar
54    27    55    1
55    28    29    1
56    28    31    ar
57    29    30    1
58    30    56    1
59    30    57    1
60    30    58    1
61    31    32    1
62    32    59    1
@<TRIPOS>SUBSTRUCTURE
1   ZINC000006906035 1     RESIDUE    1   A     ZIN   1


@<TRIPOS>MOLECULE
CC(C)(O)C1=CC2=C(S1)C(N3CCOCC3)=NC(C4=CC=C(NC(NCC)=O)C=C4)=N2
58    61    1     0     0
SMALL
USER_CHARGES
@<TRIPOS>ATOM
1      C1     -0.3072    1.5796   -1.0526 C.3      1 ZINC000071318334   -0.1700
2      C2     -0.3296    0.0578   -1.2093 C.3      1 ZINC000071318334    0.1300
3      N3     -1.5293   -0.4819   -0.5644 N.am     1 ZINC000071318334   -0.7400
4      C4     -1.7614   -1.8095   -0.5762 C.2      1 ZINC000071318334    0.7000
5      O5     -0.9751   -2.5592   -1.1221 O.2      1 ZINC000071318334   -0.5700
6      N6     -2.8650   -2.3059    0.0170 N.am     1 ZINC000071318334   -0.6900
7      C7     -3.1558   -3.6694   -0.0777 C.ar     1 ZINC000071318334    0.1900
8      C8     -2.1236   -4.6005   -0.0807 C.ar     1 ZINC000071318334   -0.1300
9      C9     -2.4078   -5.9458   -0.1741 C.ar     1 ZINC000071318334   -0.0500
10     C10    -3.7324   -6.3728   -0.2656 C.ar     1 ZINC000071318334   -0.0700
11     C11    -4.0408   -7.8191   -0.3656 C.ar     1 ZINC000071318334    0.4000
12     N12    -5.3117   -8.1989   -0.4570 N.ar     1 ZINC000071318334   -0.5400
13     C13    -5.6295   -9.4828   -0.5482 C.ar     1 ZINC000071318334    0.4200
14     N14    -6.9552   -9.8738   -0.6438 N.3      1 ZINC000071318334   -0.4700
15     C15    -7.1796  -10.6851   -1.8490 C.3      1 ZINC000071318334    0.0200
16     C16    -8.6397  -11.1444   -1.8839 C.3      1 ZINC000071318334    0.0700
17     O17    -9.4956   -9.9997   -1.8347 O.3      1 ZINC000071318334   -0.3800
18     C18    -9.3042   -9.1872   -0.6734 C.3      1 ZINC000071318334    0.0600
19     C19    -7.8508   -8.7081   -0.6263 C.3      1 ZINC000071318334    0.0300
20     C20    -4.6016  -10.4413   -0.5470 C.ar     1 ZINC000071318334   -0.2900
21     S21    -4.6434  -12.1956   -0.6495 S.3      1 ZINC000071318334    0.1700
22     C22    -2.8925  -12.2883   -0.5587 C.2      1 ZINC000071318334   -0.1600
23     C23    -2.1005  -13.5700   -0.5888 C.3      1 ZINC000071318334    0.2000
24     C24    -2.9323  -14.6981    0.0247 C.3      1 ZINC000071318334   -0.1500
25     C25    -1.7539  -13.9213   -2.0371 C.3      1 ZINC000071318334   -0.1800
26     O26    -0.8962  -13.4035    0.1622 O.3      1 ZINC000071318334   -0.5400
27     C27    -2.3629  -11.0793   -0.4605 C.2      1 ZINC000071318334   -0.1200
28     C28    -3.2753  -10.0119   -0.4496 C.ar     1 ZINC000071318334    0.2000
29     N29    -3.0456   -8.6826   -0.3660 N.ar     1 ZINC000071318334   -0.5100
30     C30    -4.7662   -5.4367   -0.2623 C.ar     1 ZINC000071318334   -0.0500
31     C31    -4.4771   -4.0928   -0.1630 C.ar     1 ZINC000071318334   -0.1600
32     H32     0.5854    1.9811   -1.5324 H        1 ZINC000071318334    0.0800
33     H33    -1.1944    2.0061   -1.5206 H        1 ZINC000071318334    0.0600
34     H34    -0.2965    1.8356    0.0069 H        1 ZINC000071318334    0.0600
35     H35    -0.3403   -0.1983   -2.2687 H        1 ZINC000071318334    0.0700
36     H36     0.5575   -0.3688   -0.7413 H        1 ZINC000071318334    0.0700
37     H37    -2.1566    0.1163   -0.1289 H        1 ZINC000071318334    0.4000
38     H38    -3.4575   -1.7168    0.5098 H        1 ZINC000071318334    0.4100
39     H39    -1.0980   -4.2693   -0.0103 H        1 ZINC000071318334    0.1500
40     H40    -1.6055   -6.6688   -0.1768 H        1 ZINC000071318334    0.1400
41     H41    -6.9647  -10.0878   -2.7351 H        1 ZINC000071318334    0.0700
42     H42    -6.5245  -11.5560   -1.8287 H        1 ZINC000071318334    0.0900
43     H43    -8.8251  -11.6982   -2.8042 H        1 ZINC000071318334    0.1100
44     H44    -8.8401  -11.7858   -1.0257 H        1 ZINC000071318334    0.0700
45     H45    -9.9702   -8.3255   -0.7183 H        1 ZINC000071318334    0.1100
46     H46    -9.5239   -9.7717    0.2200 H        1 ZINC000071318334    0.0600
47     H47    -7.6857   -8.1358    0.2866 H        1 ZINC000071318334    0.1000
48     H48    -7.6466   -8.0792   -1.4928 H        1 ZINC000071318334    0.0700
49     H49    -3.8509  -14.8251   -0.5482 H        1 ZINC000071318334    0.0700
50     H50    -2.3594  -15.6251    0.0028 H        1 ZINC000071318334    0.0800
51     H51    -3.1791  -14.4477    1.0564 H        1 ZINC000071318334    0.0700
52     H52    -1.1614  -13.1177   -2.4741 H        1 ZINC000071318334    0.0700
53     H53    -1.1811  -14.8484   -2.0589 H        1 ZINC000071318334    0.0800
54     H54    -2.6725  -14.0483   -2.6099 H        1 ZINC000071318334    0.0700
55     H55    -0.3185  -12.7032   -0.1710 H        1 ZINC000071318334    0.3800
56     H56    -1.2963  -10.9236   -0.3927 H        1 ZINC000071318334    0.1500
57     H57    -5.7927   -5.7649   -0.3330 H        1 ZINC000071318334    0.1400
58     H58    -5.2773   -3.3675   -0.1605 H        1 ZINC000071318334    0.1300
@<TRIPOS>BOND
1     1     2     1
2     1     32    1
3     1     33    1
4     1     34    1
5     2     3     1
6     2     35    1
7     2     36    1
8     3     4     am
9     3     37    1
10    4     5     2
11    4     6     am
12    6     7     1
13    6     38    1
14    7     31    ar
15    7     8     ar
16    8     9     ar
17    8     39    1
18    9     10    ar
19    9     40    1
20    10    11    1
21    10    30    ar
22    11    29    ar
23    11    12    ar
24    12    13    ar
25    13    14    1
26    13    20    ar
27    14    19    1
28    14    15    1
29    15    16    1
30    15    41    1
31    15    42    1
32    16    17    1
33    16    43    1
34    16    44    1
35    17    18    1
36    18    19    1
37    18    45    1
38    18    46    1
39    19    47    1
40    19    48    1
41    20    28    ar
42    20    21    1
43    21    22    1
44    22    23    1
45    22    27    2
46    23    24    1
47    23    25    1
48    23    26    1
49    24    49    1
50    24    50    1
51    24    51    1
52    25    52    1
53    25    53    1
54    25    54    1
55    26    55    1
56    27    28    1
57    27    56    1
58    28    29    ar
59    30    31    ar
60    30    57    1
61    31    58    1
@<TRIPOS>SUBSTRUCTURE
1   ZINC000071318334 1     RESIDUE    1   A     ZIN   1


@<TRIPOS>MOLECULE
O=C(NCC)NC(C=C1)=CC=C1C2=NC3=C(CCN(C4=NC=CC=N4)C3)C(N5[C@@H](C)COCC5)=N2
  65   69    0    0    0
SMALL
USER_CHARGES
NO_NAME
@<TRIPOS>ATOM
    1 C1        1.0629     1.5845     0.3124 C.3    1 <0>      -0.1700
    2 C2        1.2318     0.0641     0.3380 C.3    1 <0>       0.1300
    3 N3        1.2811    -0.4450    -1.0348 N.am   1 <0>      -0.7400
    4 C4        1.4265    -1.7660    -1.2589 C.2    1 <0>       0.7000
    5 O5        1.5168    -2.5352    -0.3217 O.2    1 <0>      -0.5700
    6 N6        1.4718    -2.2343    -2.5219 N.am   1 <0>      -0.6900
    7 C7        1.7174    -3.5894    -2.7560 C.ar   1 <0>       0.1900
    8 C8        1.2155    -4.5468    -1.8818 C.ar   1 <0>      -0.1300
    9 C9        1.4564    -5.8842    -2.1105 C.ar   1 <0>      -0.0500
   10 C10       2.2045    -6.2770    -3.2203 C.ar   1 <0>      -0.0700
   11 C11       2.4647    -7.7146    -3.4689 C.ar   1 <0>       0.3800
   12 N12       1.9742    -8.6145    -2.6292 N.ar   1 <0>      -0.5100
   13 C13       2.1828    -9.9127    -2.8176 C.ar   1 <0>       0.1900
   14 C14       2.9203   -10.3204    -3.9049 C.ar   1 <0>      -0.1500
   15 C15       3.1904   -11.7739    -4.1835 C.3    1 <0>      -0.0600
   16 C16       2.9124   -12.6041    -2.9290 C.3    1 <0>       0.0600
   17 N17       1.5825   -12.2429    -2.4131 N.3    1 <0>      -0.4600
   18 C18       1.1402   -13.1724    -1.4879 C.ar   1 <0>       0.4900
   19 N19       1.9135   -14.2059    -1.1891 N.ar   1 <0>      -0.5500
   20 C20       1.5209   -15.1120    -0.3089 C.ar   1 <0>       0.1700
   21 C21       0.2851   -14.9698     0.3024 C.ar   1 <0>      -0.2600
   22 C22      -0.4984   -13.8769    -0.0334 C.ar   1 <0>       0.1800
   23 N23      -0.0441   -13.0047    -0.9180 N.ar   1 <0>      -0.5300
   24 C24       1.6085   -10.8956    -1.8335 C.3    1 <0>       0.1200
   25 C25       3.4288    -9.3494    -4.7749 C.ar   1 <0>       0.3600
   26 N26       4.1786    -9.7194    -5.8796 N.3    1 <0>      -0.4800
   27 C27       3.5569    -9.2401    -7.1227 C.3    1 <0>       0.0200
   28 C28       4.3835    -9.7207    -8.3185 C.3    1 <0>       0.0700
   29 O29       5.7307    -9.2626    -8.1753 O.3    1 <0>      -0.3800
   30 C30       6.3669    -9.7113    -6.9756 C.3    1 <0>       0.0700
   31 C31       5.5605    -9.2307    -5.7662 C.3    1 <0>       0.0500
   32 H32       5.5601    -8.1411    -5.7387 H      1 <0>       0.0700
   33 C33       6.1917    -9.7739    -4.4827 C.3    1 <0>      -0.1500
   34 N34       3.1782    -8.0688    -4.5294 N.ar   1 <0>      -0.5400
   35 C35       2.7070    -5.3146    -4.0959 C.ar   1 <0>      -0.0500
   36 C36       2.4585    -3.9787    -3.8659 C.ar   1 <0>      -0.1600
   37 H37       1.9057     2.0349    -0.2120 H      1 <0>       0.0600
   38 H38       0.1366     1.8386    -0.2027 H      1 <0>       0.0600
   39 H39       1.0263     1.9632     1.3339 H      1 <0>       0.0800
   40 H40       2.1582    -0.1900     0.8532 H      1 <0>       0.0700
   41 H41       0.3891    -0.3863     0.8625 H      1 <0>       0.0700
   42 H42       1.2090     0.1688    -1.7825 H      1 <0>       0.4000
   43 H43       1.3339    -1.6304    -3.2683 H      1 <0>       0.4100
   44 H44       0.6366    -4.2421    -1.0224 H      1 <0>       0.1500
   45 H45       1.0666    -6.6275    -1.4309 H      1 <0>       0.1400
   46 H46       2.5443   -12.1136    -4.9931 H      1 <0>       0.0900
   47 H47       4.2327   -11.8989    -4.4769 H      1 <0>       0.1000
   48 H48       2.9319   -13.6646    -3.1802 H      1 <0>       0.1100
   49 H49       3.6685   -12.3901    -2.1736 H      1 <0>       0.0600
   50 H50       2.1556   -15.9525    -0.0697 H      1 <0>       0.1700
   51 H51      -0.0600   -15.6951     1.0244 H      1 <0>       0.1500
   52 H52      -1.4665   -13.7371     0.4245 H      1 <0>       0.1700
   53 H53       2.2210   -10.9027    -0.9319 H      1 <0>       0.0700
   54 H54       0.5934   -10.5949    -1.5742 H      1 <0>       0.1200
   55 H55       2.5437    -9.6347    -7.1985 H      1 <0>       0.0900
   56 H56       3.5245    -8.1506    -7.1169 H      1 <0>       0.0600
   57 H57       4.3713   -10.8100    -8.3551 H      1 <0>       0.0600
   58 H58       3.9588    -9.3201    -9.2390 H      1 <0>       0.1000
   59 H59       6.4124   -10.8004    -6.9732 H      1 <0>       0.0600
   60 H60       7.3767    -9.3040    -6.9248 H      1 <0>       0.1000
   61 H61       7.2429    -9.4881    -4.4456 H      1 <0>       0.0700
   62 H62       5.6718    -9.3599    -3.6187 H      1 <0>       0.0500
   63 H63       6.1100   -10.8608    -4.4694 H      1 <0>       0.0700
   64 H64       3.2868    -5.6162    -4.9556 H      1 <0>       0.1400
   65 H65       2.8474    -3.2331    -4.5436 H      1 <0>       0.1300
@<TRIPOS>BOND
   1    1    2 1
   2    1   37 1
   3    1   38 1
   4    1   39 1
   5    2    3 1
   6    2   40 1
   7    2   41 1
   8    3    4 am
   9    3   42 1
  10    4    5 2
  11    4    6 am
  12    6    7 1
  13    6   43 1
  14    7   36 ar
  15    7    8 ar
  16    8    9 ar
  17    8   44 1
  18    9   10 ar
  19    9   45 1
  20   10   11 1
  21   10   35 ar
  22   11   34 ar
  23   11   12 ar
  24   12   13 ar
  25   13   24 1
  26   13   14 ar
  27   14   15 1
  28   14   25 ar
  29   15   16 1
  30   15   46 1
  31   15   47 1
  32   16   17 1
  33   16   48 1
  34   16   49 1
  35   17   18 1
  36   17   24 1
  37   18   23 ar
  38   18   19 ar
  39   19   20 ar
  40   20   21 ar
  41   20   50 1
  42   21   22 ar
  43   21   51 1
  44   22   23 ar
  45   22   52 1
  46   24   53 1
  47   24   54 1
  48   25   26 1
  49   25   34 ar
  50   26   31 1
  51   26   27 1
  52   27   28 1
  53   27   55 1
  54   27   56 1
  55   28   29 1
  56   28   57 1
  57   28   58 1
  58   29   30 1
  59   30   31 1
  60   30   59 1
  61   30   60 1
  62   31   32 1
  63   31   33 1
  64   33   61 1
  65   33   62 1
  66   33   63 1
  67   35   36 ar
  68   35   64 1
  69   36   65 1


@<TRIPOS>MOLECULE
O=C(NCC)NC(C=C1)=CC=C1C2=NC3=C(CCN(C4COC4)C3)C(N5[C@@H](C)COCC5)=N2
65    69    1     0     0
SMALL
USER_CHARGES
@<TRIPOS>ATOM
1      C1     -0.3898    1.6213   -0.9596 C.3      1 ZINC000095587536   -0.1700
2      C2     -0.4060    0.1024   -1.1428 C.3      1 ZINC000095587536    0.1300
3      N3     -1.5971   -0.4547   -0.4970 N.am     1 ZINC000095587536   -0.7400
4      C4     -1.8225   -1.7831   -0.5301 C.2      1 ZINC000095587536    0.7000
5      O5     -1.0373   -2.5190   -1.0960 O.2      1 ZINC000095587536   -0.5700
6      N6     -2.9183   -2.2957    0.0640 N.am     1 ZINC000095587536   -0.6900
7      C7     -3.2013   -3.6590   -0.0497 C.ar     1 ZINC000095587536    0.1900
8      C8     -2.1633   -4.5835   -0.0745 C.ar     1 ZINC000095587536   -0.1300
9      C9     -2.4400   -5.9288   -0.1866 C.ar     1 ZINC000095587536   -0.0500
10     C10    -3.7626   -6.3627   -0.2751 C.ar     1 ZINC000095587536   -0.0700
11     C11    -4.0629   -7.8089   -0.3952 C.ar     1 ZINC000095587536    0.3800
12     N12    -3.0623   -8.6773   -0.4115 N.ar     1 ZINC000095587536   -0.5100
13     C13    -3.2890   -9.9819   -0.5156 C.ar     1 ZINC000095587536    0.1900
14     C14    -4.5865  -10.4298   -0.6065 C.ar     1 ZINC000095587536   -0.1500
15     C15    -4.9172  -11.8930   -0.7202 C.3      1 ZINC000095587536   -0.0500
16     C16    -3.6692  -12.6777   -1.1289 C.3      1 ZINC000095587536    0.0400
17     N17    -2.5621  -12.2946   -0.2385 N.3      1 ZINC000095587536   -0.5200
18     C18    -1.4468  -13.2446   -0.3464 C.3      1 ZINC000095587536    0.0100
19     C19    -0.6055  -13.3647    0.9383 C.3      1 ZINC000095587536    0.0500
20     O20    -0.6363  -14.7848    0.6906 O.3      1 ZINC000095587536   -0.3800
21     C21    -1.8491  -14.7084   -0.0853 C.3      1 ZINC000095587536    0.0500
22     C22    -2.1189  -10.9278   -0.5341 C.3      1 ZINC000095587536    0.1000
23     C23    -5.6246   -9.4915   -0.5893 C.ar     1 ZINC000095587536    0.3500
24     N24    -6.9445   -9.9024   -0.6814 N.3      1 ZINC000095587536   -0.4800
25     C25    -7.6574   -9.6722    0.5836 C.3      1 ZINC000095587536    0.0200
26     C26    -9.0913  -10.1937    0.4573 C.3      1 ZINC000095587536    0.0700
27     O27    -9.7309   -9.5519   -0.6492 O.3      1 ZINC000095587536   -0.3800
28     C28    -9.0633   -9.7558   -1.8975 C.3      1 ZINC000095587536    0.0700
29     C29    -7.6292   -9.2299   -1.7950 C.3      1 ZINC000095587536    0.0500
30     H30    -7.6477   -8.1550   -1.6150 H        1 ZINC000095587536    0.0700
31     C31    -6.8854   -9.5164   -3.1010 C.3      1 ZINC000095587536   -0.1400
32     N32    -5.3269   -8.2024   -0.4782 N.ar     1 ZINC000095587536   -0.5400
33     C33    -4.8022   -5.4331   -0.2499 C.ar     1 ZINC000095587536   -0.0500
34     C34    -4.5207   -4.0893   -0.1320 C.ar     1 ZINC000095587536   -0.1600
35     H35     0.4964    2.0359   -1.4401 H        1 ZINC000095587536    0.0800
36     H36    -1.2833    2.0514   -1.4122 H        1 ZINC000095587536    0.0600
37     H37    -0.3711    1.8588    0.1041 H        1 ZINC000095587536    0.0600
38     H38    -0.4247   -0.1350   -2.2065 H        1 ZINC000095587536    0.0700
39     H39     0.4875   -0.3276   -0.6902 H        1 ZINC000095587536    0.0700
40     H40    -2.2235    0.1324   -0.0456 H        1 ZINC000095587536    0.4000
41     H41    -3.5104   -1.7180    0.5705 H        1 ZINC000095587536    0.4100
42     H42    -1.1393   -4.2470   -0.0063 H        1 ZINC000095587536    0.1500
43     H43    -1.6333   -6.6466   -0.2062 H        1 ZINC000095587536    0.1400
44     H44    -5.2762  -12.2590    0.2417 H        1 ZINC000095587536    0.0900
45     H45    -5.6943  -12.0314   -1.4719 H        1 ZINC000095587536    0.0900
46     H46    -3.8617  -13.7465   -1.0346 H        1 ZINC000095587536    0.0900
47     H47    -3.4086  -12.4397   -2.1602 H        1 ZINC000095587536    0.0400
48     H48    -0.8549  -13.1055   -1.2511 H        1 ZINC000095587536    0.0800
49     H49     0.3883  -12.9244    0.8573 H        1 ZINC000095587536    0.0900
50     H50    -1.1350  -13.0632    1.8420 H        1 ZINC000095587536    0.0900
51     H51    -2.7584  -14.8171    0.5059 H        1 ZINC000095587536    0.0900
52     H52    -1.8417  -15.3338   -0.9780 H        1 ZINC000095587536    0.0900
53     H53    -1.6525  -10.9051   -1.5190 H        1 ZINC000095587536    0.0700
54     H54    -1.3905  -10.6152    0.2140 H        1 ZINC000095587536    0.1100
55     H55    -7.1479  -10.2000    1.3898 H        1 ZINC000095587536    0.0900
56     H56    -7.6763   -8.6044    0.8016 H        1 ZINC000095587536    0.0600
57     H57    -9.0736  -11.2710    0.2925 H        1 ZINC000095587536    0.0600
58     H58    -9.6405   -9.9738    1.3727 H        1 ZINC000095587536    0.1000
59     H59    -9.0448  -10.8204   -2.1307 H        1 ZINC000095587536    0.0600
60     H60    -9.5924   -9.2192   -2.6851 H        1 ZINC000095587536    0.1000
61     H61    -7.3439   -8.9506   -3.9120 H        1 ZINC000095587536    0.0700
62     H62    -5.8414   -9.2211   -2.9969 H        1 ZINC000095587536    0.0500
63     H63    -6.9410  -10.5818   -3.3245 H        1 ZINC000095587536    0.0700
64     H64    -5.8271   -5.7666   -0.3186 H        1 ZINC000095587536    0.1400
65     H65    -5.3253   -3.3691   -0.1124 H        1 ZINC000095587536    0.1300
@<TRIPOS>BOND
1     1     2     1
2     1     35    1
3     1     36    1
4     1     37    1
5     2     3     1
6     2     38    1
7     2     39    1
8     3     4     am
9     3     40    1
10    4     5     2
11    4     6     am
12    6     7     1
13    6     41    1
14    7     34    ar
15    7     8     ar
16    8     9     ar
17    8     42    1
18    9     10    ar
19    9     43    1
20    10    11    1
21    10    33    ar
22    11    32    ar
23    11    12    ar
24    12    13    ar
25    13    22    1
26    13    14    ar
27    14    15    1
28    14    23    ar
29    15    16    1
30    15    44    1
31    15    45    1
32    16    17    1
33    16    46    1
34    16    47    1
35    17    18    1
36    17    22    1
37    18    21    1
38    18    19    1
39    18    48    1
40    19    20    1
41    19    49    1
42    19    50    1
43    20    21    1
44    21    51    1
45    21    52    1
46    22    53    1
47    22    54    1
48    23    24    1
49    23    32    ar
50    24    29    1
51    24    25    1
52    25    26    1
53    25    55    1
54    25    56    1
55    26    27    1
56    26    57    1
57    26    58    1
58    27    28    1
59    28    29    1
60    28    59    1
61    28    60    1
62    29    30    1
63    29    31    1
64    31    61    1
65    31    62    1
66    31    63    1
67    33    34    ar
68    33    64    1
69    34    65    1
@<TRIPOS>SUBSTRUCTURE
1   ZINC000095587536 1     RESIDUE    1   A     ZIN   1


@<TRIPOS>MOLECULE
O=C(NCC)NC(C=C1)=CC=C1C2=NC3=C(CS(C3(C)C)(=O)=O)C(N4[C@@H](C)COCC4)=N2
61    64    1     0     0
SMALL
USER_CHARGES
@<TRIPOS>ATOM
1      C1     -0.3115    1.5802   -1.0345 C.3      1 ZINC000143379751   -0.1700
2      C2     -0.3335    0.0587   -1.1937 C.3      1 ZINC000143379751    0.1300
3      N3     -1.5337   -0.4823   -0.5511 N.am     1 ZINC000143379751   -0.7400
4      C4     -1.7655   -1.8099   -0.5653 C.2      1 ZINC000143379751    0.7000
5      O5     -0.9784   -2.5586   -1.1115 O.2      1 ZINC000143379751   -0.5700
6      N6     -2.8696   -2.3076    0.0259 N.am     1 ZINC000143379751   -0.6900
7      C7     -3.1596   -3.6707   -0.0708 C.ar     1 ZINC000143379751    0.1900
8      C8     -2.1268   -4.6014   -0.0733 C.ar     1 ZINC000143379751   -0.1300
9      C9     -2.4102   -5.9466   -0.1686 C.ar     1 ZINC000143379751   -0.0500
10     C10    -3.7346   -6.3742   -0.2621 C.ar     1 ZINC000143379751   -0.0700
11     C11    -4.0421   -7.8203   -0.3642 C.ar     1 ZINC000143379751    0.4000
12     N12    -3.0482   -8.6981   -0.3601 N.ar     1 ZINC000143379751   -0.5300
13     C13    -3.3033   -9.9940   -0.4499 C.ar     1 ZINC000143379751    0.3900
14     N14    -2.2626  -10.9087   -0.4448 N.3      1 ZINC000143379751   -0.4800
15     C15    -1.3329  -10.6552   -1.5550 C.3      1 ZINC000143379751    0.0200
16     C16    -0.2345  -11.7217   -1.5474 C.3      1 ZINC000143379751    0.0700
17     O17     0.4232  -11.7124   -0.2775 O.3      1 ZINC000143379751   -0.3800
18     C18    -0.4527  -11.9566    0.8264 C.3      1 ZINC000143379751    0.0700
19     C19    -1.5533  -10.8925    0.8427 C.3      1 ZINC000143379751    0.0500
20     H20    -1.1076   -9.9103    1.0004 H        1 ZINC000143379751    0.0700
21     C21    -2.5386  -11.1939    1.9738 C.3      1 ZINC000143379751   -0.1500
22     C22    -4.6353  -10.4404   -0.5503 C.ar     1 ZINC000143379751   -0.1700
23     C23    -5.0945  -11.8851   -0.6598 C.3      1 ZINC000143379751   -0.5300
24     S24    -6.8676  -11.8160   -0.2070 S.o2     1 ZINC000143379751    2.4000
25     O25    -7.6248  -12.6236   -1.0978 O.2      1 ZINC000143379751   -0.9100
26     O26    -7.0129  -11.9700    1.1982 O.2      1 ZINC000143379751   -0.9100
27     C27    -7.0481  -10.0514   -0.6619 C.3      1 ZINC000143379751   -0.4700
28     C28    -7.5665   -9.9164   -2.0951 C.3      1 ZINC000143379751   -0.1200
29     C29    -7.9839   -9.3376    0.3157 C.3      1 ZINC000143379751   -0.1300
30     C30    -5.6349   -9.5010   -0.5513 C.ar     1 ZINC000143379751    0.2000
31     N31    -5.3015   -8.2098   -0.4522 N.ar     1 ZINC000143379751   -0.5000
32     C32    -4.7690   -5.4385   -0.2590 C.ar     1 ZINC000143379751   -0.0400
33     C33    -4.4806   -4.0947   -0.1586 C.ar     1 ZINC000143379751   -0.1600
34     H34     0.5815    1.9828   -1.5126 H        1 ZINC000143379751    0.0800
35     H35    -1.1983    2.0074   -1.5028 H        1 ZINC000143379751    0.0600
36     H36    -0.3021    1.8345    0.0254 H        1 ZINC000143379751    0.0600
37     H37    -0.3429   -0.1956   -2.2536 H        1 ZINC000143379751    0.0700
38     H38     0.5533   -0.3684   -0.7254 H        1 ZINC000143379751    0.0700
39     H39    -2.1616    0.1150   -0.1153 H        1 ZINC000143379751    0.4000
40     H40    -3.4630   -1.7193    0.5186 H        1 ZINC000143379751    0.4100
41     H41    -1.1015   -4.2698   -0.0009 H        1 ZINC000143379751    0.1500
42     H42    -1.6075   -6.6692   -0.1712 H        1 ZINC000143379751    0.1400
43     H43    -1.8744  -10.6972   -2.5001 H        1 ZINC000143379751    0.0900
44     H44    -0.8837   -9.6693   -1.4357 H        1 ZINC000143379751    0.0700
45     H45    -0.6781  -12.7023   -1.7203 H        1 ZINC000143379751    0.0600
46     H46     0.4887  -11.5050   -2.3335 H        1 ZINC000143379751    0.1100
47     H47    -0.9026  -12.9440    0.7225 H        1 ZINC000143379751    0.0600
48     H48     0.1128  -11.9097    1.7570 H        1 ZINC000143379751    0.1100
49     H49    -1.9967  -11.2735    2.9162 H        1 ZINC000143379751    0.0800
50     H50    -3.2703  -10.3890    2.0423 H        1 ZINC000143379751    0.0500
51     H51    -3.0507  -12.1340    1.7686 H        1 ZINC000143379751    0.0700
52     H52    -4.9740  -12.2487   -1.6803 H        1 ZINC000143379751    0.1600
53     H53    -4.5452  -12.5154    0.0395 H        1 ZINC000143379751    0.1500
54     H54    -8.5379  -10.4039   -2.1775 H        1 ZINC000143379751    0.0900
55     H55    -7.6672   -8.8607   -2.3471 H        1 ZINC000143379751    0.0900
56     H56    -6.8636  -10.3884   -2.7816 H        1 ZINC000143379751    0.0700
57     H57    -7.5745   -9.4028    1.3238 H        1 ZINC000143379751    0.0800
58     H58    -8.0787   -8.2903    0.0290 H        1 ZINC000143379751    0.0900
59     H59    -8.9653   -9.8113    0.2908 H        1 ZINC000143379751    0.0800
60     H60    -5.7952   -5.7672   -0.3316 H        1 ZINC000143379751    0.1400
61     H61    -5.2812   -3.3698   -0.1561 H        1 ZINC000143379751    0.1300
@<TRIPOS>BOND
1     1     2     1
2     1     34    1
3     1     35    1
4     1     36    1
5     2     3     1
6     2     37    1
7     2     38    1
8     3     4     am
9     3     39    1
10    4     5     2
11    4     6     am
12    6     7     1
13    6     40    1
14    7     33    ar
15    7     8     ar
16    8     9     ar
17    8     41    1
18    9     10    ar
19    9     42    1
20    10    11    1
21    10    32    ar
22    11    31    ar
23    11    12    ar
24    12    13    ar
25    13    14    1
26    13    22    ar
27    14    19    1
28    14    15    1
29    15    16    1
30    15    43    1
31    15    44    1
32    16    17    1
33    16    45    1
34    16    46    1
35    17    18    1
36    18    19    1
37    18    47    1
38    18    48    1
39    19    20    1
40    19    21    1
41    21    49    1
42    21    50    1
43    21    51    1
44    22    30    ar
45    22    23    1
46    23    24    1
47    23    52    1
48    23    53    1
49    24    25    2
50    24    26    2
51    24    27    1
52    27    28    1
53    27    29    1
54    27    30    1
55    28    54    1
56    28    55    1
57    28    56    1
58    29    57    1
59    29    58    1
60    29    59    1
61    30    31    ar
62    32    33    ar
63    32    60    1
64    33    61    1
@<TRIPOS>SUBSTRUCTURE
1   ZINC000143379751 1     RESIDUE    1   A     ZIN   1


@<TRIPOS>MOLECULE
O=C(C1=CC=C(S(C)(=O)=O)C=C1Cl)NC2=CC=C(Cl)C(C3=NC=CC=C3)=C2
41    43    1     0     0
SMALL
USER_CHARGES
@<TRIPOS>ATOM
1      C1      0.0062    1.8126    0.0286 C.3      1 ZINC000040899447   -0.6500
2      S2      0.0367   -0.0011    0.0166 S.o2     1 ZINC000040899447    2.5000
3      O3      0.8859   -0.4923    1.0447 O.2      1 ZINC000040899447   -0.9300
4      O4     -1.2738   -0.5208   -0.1618 O.2      1 ZINC000040899447   -0.9300
5      C5      0.8760   -0.4169   -1.4758 C.ar     1 ZINC000040899447   -0.6300
6      C6      0.1567   -0.5876   -2.6456 C.ar     1 ZINC000040899447   -0.0300
7      C7      0.8066   -0.9127   -3.8181 C.ar     1 ZINC000040899447   -0.0900
8      C8      2.1937   -1.0697   -3.8236 C.ar     1 ZINC000040899447   -0.0800
9      C9      2.8963   -1.4174   -5.0758 C.2      1 ZINC000040899447    0.5500
10     O10     4.1044   -1.5535   -5.0773 O.2      1 ZINC000040899447   -0.4800
11     N11     2.1981   -1.5837   -6.2165 N.am     1 ZINC000040899447   -0.6700
12     C12     2.8707   -1.8211   -7.4202 C.ar     1 ZINC000040899447    0.1500
13     C13     4.0334   -2.5818   -7.4279 C.ar     1 ZINC000040899447   -0.1000
14     C14     4.7010   -2.8188   -8.6145 C.ar     1 ZINC000040899447   -0.0900
15     C15     4.2158   -2.3010   -9.8000 C.ar     1 ZINC000040899447   -0.0200
16     Cl16    5.0579   -2.6022  -11.2879 Cl       1 ZINC000040899447   -0.0500
17     C17     3.0487   -1.5365   -9.8012 C.ar     1 ZINC000040899447   -0.0200
18     C18     2.5257   -0.9796  -11.0726 C.ar     1 ZINC000040899447    0.1600
19     C19     2.1881    0.3698  -11.1485 C.ar     1 ZINC000040899447   -0.1500
20     C20     1.7018    0.8754  -12.3420 C.ar     1 ZINC000040899447   -0.0700
21     C21     1.5690    0.0136  -13.4212 C.ar     1 ZINC000040899447   -0.1700
22     C22     1.9233   -1.3152  -13.2756 C.ar     1 ZINC000040899447    0.1000
23     N23     2.3885   -1.7695  -12.1299 N.ar     1 ZINC000040899447   -0.4600
24     C24     2.3737   -1.3019   -8.6062 C.ar     1 ZINC000040899447   -0.1100
25     C25     2.9145   -0.8961   -2.6390 C.ar     1 ZINC000040899447   -0.0100
26     Cl26    4.6398   -1.0888   -2.6337 Cl       1 ZINC000040899447   -0.0100
27     C27     2.2511   -0.5655   -1.4737 C.ar     1 ZINC000040899447   -0.0200
28     H28     1.0275    2.1932    0.0164 H        1 ZINC000040899447    0.1400
29     H29    -0.5264    2.1728   -0.8516 H        1 ZINC000040899447    0.1300
30     H30    -0.5010    2.1615    0.9281 H        1 ZINC000040899447    0.1400
31     H31    -0.9164   -0.4662   -2.6405 H        1 ZINC000040899447    0.1600
32     H32     0.2433   -1.0458   -4.7300 H        1 ZINC000040899447    0.1500
33     H33     1.2292   -1.5388   -6.2030 H        1 ZINC000040899447    0.4100
34     H34     4.4167   -2.9887   -6.5039 H        1 ZINC000040899447    0.1500
35     H35     5.6047   -3.4101   -8.6151 H        1 ZINC000040899447    0.1400
36     H36     2.3039    1.0125  -10.2883 H        1 ZINC000040899447    0.1400
37     H37     1.4314    1.9172  -12.4308 H        1 ZINC000040899447    0.1400
38     H38     1.1922    0.3770  -14.3659 H        1 ZINC000040899447    0.1400
39     H39     1.8212   -1.9886  -14.1137 H        1 ZINC000040899447    0.1600
40     H40     1.4696   -0.7111   -8.6019 H        1 ZINC000040899447    0.1400
41     H41     2.8063   -0.4305   -0.5572 H        1 ZINC000040899447    0.1600
@<TRIPOS>BOND
1     1     2     1
2     1     28    1
3     1     29    1
4     1     30    1
5     2     3     2
6     2     4     2
7     2     5     1
8     5     27    ar
9     5     6     ar
10    6     7     ar
11    6     31    1
12    7     8     ar
13    7     32    1
14    8     9     1
15    8     25    ar
16    9     10    2
17    9     11    am
18    11    12    1
19    11    33    1
20    12    24    ar
21    12    13    ar
22    13    14    ar
23    13    34    1
24    14    15    ar
25    14    35    1
26    15    16    1
27    15    17    ar
28    17    18    1
29    17    24    ar
30    18    23    ar
31    18    19    ar
32    19    20    ar
33    19    36    1
34    20    21    ar
35    20    37    1
36    21    22    ar
37    21    38    1
38    22    23    ar
39    22    39    1
40    24    40    1
41    25    26    1
42    25    27    ar
43    27    41    1
@<TRIPOS>SUBSTRUCTURE
1   ZINC000040899447 1     RESIDUE    1   A     ZIN   1


@<TRIPOS>MOLECULE
NC1=CC(C(F)(F)F)=C(C2=NC(N3CCOCC3)=NC(N4CCOCC4)=C2)C=N1
50    53    1     0     0
SMALL
USER_CHARGES
@<TRIPOS>ATOM
1      N1     -0.0167    1.3835    0.0096 N.pl3    1 ZINC000043154039   -0.8400
2      C2      0.0021   -0.0041    0.0020 C.ar     1 ZINC000043154039    0.4300
3      C3     -1.1996   -0.7076    0.0039 C.ar     1 ZINC000043154039   -0.2000
4      C4     -1.1727   -2.0877   -0.0042 C.ar     1 ZINC000043154039   -0.0500
5      C5     -2.4518   -2.8845   -0.0029 C.3      1 ZINC000043154039    0.5200
6      F6     -3.5450   -2.0116    0.0071 F        1 ZINC000043154039   -0.1800
7      F7     -2.5041   -3.6842   -1.1496 F        1 ZINC000043154039   -0.1600
8      F8     -2.4937   -3.6974    1.1349 F        1 ZINC000043154039   -0.1600
9      C9      0.0718   -2.7294   -0.0140 C.ar     1 ZINC000043154039   -0.1300
10     C10     0.1540   -4.2093   -0.0235 C.ar     1 ZINC000043154039    0.2600
11     C11     1.3921   -4.8480   -0.0275 C.ar     1 ZINC000043154039   -0.2600
12     C12     1.4185   -6.2417   -0.0365 C.ar     1 ZINC000043154039    0.3900
13     N13     2.6265   -6.9210   -0.0403 N.3      1 ZINC000043154039   -0.4700
14     C14     3.4589   -6.5093   -1.1801 C.3      1 ZINC000043154039    0.0200
15     C15     4.8037   -7.2377   -1.1124 C.3      1 ZINC000043154039    0.0600
16     O16     4.5751   -8.6493   -1.0909 O.3      1 ZINC000043154039   -0.3800
17     C17     3.7684   -9.0852    0.0066 C.3      1 ZINC000043154039    0.0600
18     C18     2.4130   -8.3755   -0.0497 C.3      1 ZINC000043154039    0.0300
19     N19     0.2692   -6.9108   -0.0408 N.ar     1 ZINC000043154039   -0.5700
20     C20    -0.8904   -6.2700   -0.0367 C.ar     1 ZINC000043154039    0.5400
21     N21    -2.0646   -7.0027   -0.0415 N.3      1 ZINC000043154039   -0.4600
22     C22    -2.1091   -7.9192   -1.1901 C.3      1 ZINC000043154039    0.0300
23     C23    -3.3933   -8.7501   -1.1236 C.3      1 ZINC000043154039    0.0600
24     O24    -4.5217   -7.8723   -1.0874 O.3      1 ZINC000043154039   -0.3800
25     C25    -4.5110   -6.9662    0.0190 C.3      1 ZINC000043154039    0.0600
26     C26    -3.2382   -6.1172   -0.0358 C.3      1 ZINC000043154039    0.0100
27     N27    -0.9563   -4.9483   -0.0227 N.ar     1 ZINC000043154039   -0.5700
28     C28     1.2313   -1.9578   -0.0153 C.ar     1 ZINC000043154039    0.2000
29     N29     1.1633   -0.6422   -0.0125 N.ar     1 ZINC000043154039   -0.5200
30     H30     0.8166    1.8799    0.0044 H        1 ZINC000043154039    0.4100
31     H31    -0.8633    1.8570    0.0162 H        1 ZINC000043154039    0.4100
32     H32    -2.1417   -0.1797    0.0120 H        1 ZINC000043154039    0.1500
33     H33     2.3090   -4.2773   -0.0242 H        1 ZINC000043154039    0.1500
34     H34     2.9530   -6.7647   -2.1112 H        1 ZINC000043154039    0.0600
35     H35     3.6255   -5.4328   -1.1390 H        1 ZINC000043154039    0.1000
36     H36     5.4021   -6.9791   -1.9860 H        1 ZINC000043154039    0.1100
37     H37     5.3332   -6.9409   -0.2070 H        1 ZINC000043154039    0.0700
38     H38     3.6179  -10.1628   -0.0577 H        1 ZINC000043154039    0.1100
39     H39     4.2678   -8.8422    0.9445 H        1 ZINC000043154039    0.0600
40     H40     1.8162   -8.6613    0.8164 H        1 ZINC000043154039    0.1000
41     H41     1.8905   -8.6607   -0.9628 H        1 ZINC000043154039    0.0600
42     H42    -2.0954   -7.3437   -2.1157 H        1 ZINC000043154039    0.0500
43     H43    -1.2445   -8.5824   -1.1602 H        1 ZINC000043154039    0.1000
44     H44    -3.4583   -9.3904   -2.0033 H        1 ZINC000043154039    0.1100
45     H45    -3.3822   -9.3659   -0.2244 H        1 ZINC000043154039    0.0600
46     H46    -5.3845   -6.3163   -0.0342 H        1 ZINC000043154039    0.1100
47     H47    -4.5324   -7.5301    0.9515 H        1 ZINC000043154039    0.0600
48     H48    -3.1978   -5.4650    0.8366 H        1 ZINC000043154039    0.1100
49     H49    -3.2425   -5.5129   -0.9430 H        1 ZINC000043154039    0.0800
50     H50     2.1962   -2.4431   -0.0226 H        1 ZINC000043154039    0.1700
@<TRIPOS>BOND
1     1     2     1
2     1     30    1
3     1     31    1
4     2     29    ar
5     2     3     ar
6     3     4     ar
7     3     32    1
8     4     5     1
9     4     9     ar
10    5     6     1
11    5     7     1
12    5     8     1
13    9     10    1
14    9     28    ar
15    10    27    ar
16    10    11    ar
17    11    12    ar
18    11    33    1
19    12    13    1
20    12    19    ar
21    13    18    1
22    13    14    1
23    14    15    1
24    14    34    1
25    14    35    1
26    15    16    1
27    15    36    1
28    15    37    1
29    16    17    1
30    17    18    1
31    17    38    1
32    17    39    1
33    18    40    1
34    18    41    1
35    19    20    ar
36    20    21    1
37    20    27    ar
38    21    26    1
39    21    22    1
40    22    23    1
41    22    42    1
42    22    43    1
43    23    24    1
44    23    44    1
45    23    45    1
46    24    25    1
47    25    26    1
48    25    46    1
49    25    47    1
50    26    48    1
51    26    49    1
52    28    29    ar
53    28    50    1
@<TRIPOS>SUBSTRUCTURE
1   ZINC000043154039 1     RESIDUE    1   A     ZIN   1


@<TRIPOS>MOLECULE
OC1=CC(C2=NC3=C(OC4=C3C=CC=N4)C(N5CCOCC5)=N2)=CC=C1
42    46    1     0     0
SMALL
USER_CHARGES
@<TRIPOS>ATOM
1      O1     -0.0164    1.3549    0.0095 O.3      1 ZINC000003963016   -0.5000
2      C2      0.0021   -0.0041    0.0020 C.ar     1 ZINC000003963016    0.1000
3      C3      0.0058   -0.6913   -1.2038 C.ar     1 ZINC000003963016   -0.1200
4      C4      0.0245   -2.0737   -1.2162 C.ar     1 ZINC000003963016   -0.1100
5      C5      0.0401   -2.7781   -0.0295 C.ar     1 ZINC000003963016   -0.0800
6      C6      0.0369   -2.0956    1.1860 C.ar     1 ZINC000003963016   -0.0300
7      C7      0.0541   -2.8503    2.4629 C.ar     1 ZINC000003963016    0.3800
8      N8      0.0453   -2.1812    3.6057 N.ar     1 ZINC000003963016   -0.4900
9      C9      0.0602   -2.8283    4.7667 C.ar     1 ZINC000003963016    0.1700
10     C10     0.0854   -4.2285    4.7766 C.ar     1 ZINC000003963016   -0.0400
11     O11     0.0971   -4.6523    6.0572 O.3      1 ZINC000003963016   -0.1700
12     C12     0.0812   -3.6160    6.9225 C.ar     1 ZINC000003963016    0.3100
13     C13     0.0574   -2.4235    6.1815 C.ar     1 ZINC000003963016   -0.1800
14     C14     0.0380   -1.1993    6.8453 C.ar     1 ZINC000003963016    0.0100
15     C15     0.0429   -1.2071    8.2294 C.ar     1 ZINC000003963016   -0.2000
16     C16     0.0668   -2.4194    8.8983 C.ar     1 ZINC000003963016    0.1700
17     N17     0.0845   -3.5638    8.2479 N.ar     1 ZINC000003963016   -0.4800
18     C18     0.0938   -4.8947    3.5441 C.ar     1 ZINC000003963016    0.4000
19     N19     0.1186   -6.2801    3.4917 N.3      1 ZINC000003963016   -0.4700
20     C20     1.2732   -6.8146    4.2282 C.3      1 ZINC000003963016    0.0200
21     C21     1.2288   -8.3446    4.1953 C.3      1 ZINC000003963016    0.0700
22     O22     1.2023   -8.7866    2.8355 O.3      1 ZINC000003963016   -0.3800
23     C23     0.0903   -8.2853    2.0888 C.3      1 ZINC000003963016    0.0600
24     C24     0.1232   -6.7547    2.1003 C.3      1 ZINC000003963016    0.0300
25     N25     0.0724   -4.1775    2.4275 N.ar     1 ZINC000003963016   -0.5200
26     C26     0.0229   -0.7030    1.1980 C.ar     1 ZINC000003963016   -0.0900
27     H27     0.8616    1.7602    0.0033 H        1 ZINC000003963016    0.3900
28     H28    -0.0063   -0.1446   -2.1351 H        1 ZINC000003963016    0.1300
29     H29     0.0266   -2.6037   -2.1572 H        1 ZINC000003963016    0.1400
30     H30     0.0543   -3.8580   -0.0426 H        1 ZINC000003963016    0.1400
31     H31     0.0199   -0.2699    6.2955 H        1 ZINC000003963016    0.1500
32     H32     0.0286   -0.2788    8.7812 H        1 ZINC000003963016    0.1600
33     H33     0.0706   -2.4261    9.9783 H        1 ZINC000003963016    0.1800
34     H34     2.1951   -6.4671    3.7617 H        1 ZINC000003963016    0.0600
35     H35     1.2360   -6.4715    5.2621 H        1 ZINC000003963016    0.1000
36     H36     2.1132   -8.7451    4.6910 H        1 ZINC000003963016    0.1100
37     H37     0.3332   -8.6938    4.7092 H        1 ZINC000003963016    0.0700
38     H38     0.1512   -8.6429    1.0609 H        1 ZINC000003963016    0.1100
39     H39    -0.8384   -8.6328    2.5413 H        1 ZINC000003963016    0.0600
40     H40    -0.7536   -6.3679    1.5809 H        1 ZINC000003963016    0.1000
41     H41     1.0266   -6.4063    1.5998 H        1 ZINC000003963016    0.0700
42     H42     0.0204   -0.1696    2.1370 H        1 ZINC000003963016    0.1400
@<TRIPOS>BOND
1     1     2     1
2     1     27    1
3     2     26    ar
4     2     3     ar
5     3     4     ar
6     3     28    1
7     4     5     ar
8     4     29    1
9     5     6     ar
10    5     30    1
11    6     7     1
12    6     26    ar
13    7     25    ar
14    7     8     ar
15    8     9     ar
16    9     13    1
17    9     10    ar
18    10    11    1
19    10    18    ar
20    11    12    1
21    12    17    ar
22    12    13    ar
23    13    14    ar
24    14    15    ar
25    14    31    1
26    15    16    ar
27    15    32    1
28    16    17    ar
29    16    33    1
30    18    19    1
31    18    25    ar
32    19    24    1
33    19    20    1
34    20    21    1
35    20    34    1
36    20    35    1
37    21    22    1
38    21    36    1
39    21    37    1
40    22    23    1
41    23    24    1
42    23    38    1
43    23    39    1
44    24    40    1
45    24    41    1
46    26    42    1
@<TRIPOS>SUBSTRUCTURE
1   ZINC000003963016 1     RESIDUE    1   A     ZIN   1


@<TRIPOS>MOLECULE
O=C1NC2=NC=C(C3=CC=C(C4=NNC=N4)C=C3)N=C2N1CCC5CCOCC5
  50   54    0    0    0
SMALL
USER_CHARGES
NO_NAME
@<TRIPOS>ATOM
    1 O1        0.0021    -0.0041     0.0020 O.2    1 <0>      -0.5300
    2 C2       -0.0144     1.2124     0.0087 C.2    1 <0>       0.7000
    3 N3       -1.1257     1.9717     0.0292 N.am   1 <0>      -0.6200
    4 C4       -0.7446     3.3060     0.0306 C.ar   1 <0>       0.2600
    5 N5       -1.4226     4.4427     0.0463 N.ar   1 <0>      -0.4200
    6 C6       -0.7777     5.5959     0.0425 C.ar   1 <0>       0.0800
    7 C7        0.6155     5.6196     0.0219 C.ar   1 <0>       0.1400
    8 C8        1.3337     6.9163     0.0177 C.ar   1 <0>      -0.0300
    9 C9        2.7222     6.9442    -0.1139 C.ar   1 <0>      -0.0800
   10 C10       3.3894     8.1492    -0.1177 C.ar   1 <0>      -0.0900
   11 C11       2.6770     9.3412     0.0103 C.ar   1 <0>       0.0000
   12 C12       3.3957    10.6386     0.0066 C.2    1 <0>       0.2600
   13 N13       4.6961    10.7944    -0.1159 N.2    1 <0>      -0.3000
   14 N14       4.9433    12.1761    -0.0686 N.pl3  1 <0>      -0.4800
   15 C15       3.7475    12.7737     0.0826 C.2    1 <0>       0.2700
   16 N16       2.8274    11.8468     0.1216 N.2    1 <0>      -0.5300
   17 C17       1.2889     9.3135     0.1413 C.ar   1 <0>      -0.0700
   18 C18       0.6208     8.1090     0.1395 C.ar   1 <0>      -0.1000
   19 N19       1.3023     4.4791     0.0065 N.ar   1 <0>      -0.4200
   20 C20       0.6580     3.3253     0.0099 C.ar   1 <0>       0.2700
   21 N21       1.0760     2.0018     0.0025 N.am   1 <0>      -0.5200
   22 C22       2.4669     1.5422    -0.0107 C.3    1 <0>       0.1300
   23 C23       2.9636     1.3781     1.4271 C.3    1 <0>      -0.1300
   24 C24       4.4162     0.8980     1.4132 C.3    1 <0>      -0.0900
   25 C25       5.3096     1.9856     0.8087 C.3    1 <0>      -0.1500
   26 C26       6.7695     1.5290     0.8711 C.3    1 <0>       0.0600
   27 O27       7.1229     1.2518     2.2277 O.3    1 <0>      -0.3800
   28 C28       6.3523     0.2101     2.8303 C.3    1 <0>       0.0600
   29 C29       4.8756     0.6137     2.8466 C.3    1 <0>      -0.1500
   30 H30      -2.0379     1.6422     0.0408 H      1 <0>       0.4400
   31 H31      -1.3319     6.5228     0.0549 H      1 <0>       0.1900
   32 H32       3.2740     6.0211    -0.2123 H      1 <0>       0.1400
   33 H33       4.4643     8.1709    -0.2196 H      1 <0>       0.1400
   34 H34       5.8067    12.6135    -0.1320 H      1 <0>       0.4500
   35 H35       3.5769    13.8377     0.1553 H      1 <0>       0.2300
   36 H36       0.7374    10.2368     0.2404 H      1 <0>       0.1400
   37 H37      -0.4543     8.0877     0.2406 H      1 <0>       0.1400
   38 H38       2.5283     0.5846    -0.5278 H      1 <0>       0.1000
   39 H39       3.0867     2.2747    -0.5278 H      1 <0>       0.1000
   40 H40       2.9022     2.3356     1.9442 H      1 <0>       0.0700
   41 H41       2.3438     0.6455     1.9442 H      1 <0>       0.0700
   42 H42       4.4939    -0.0119     0.8182 H      1 <0>       0.0800
   43 H43       5.0250     2.1552    -0.2297 H      1 <0>       0.0800
   44 H44       5.1924     2.9096     1.3750 H      1 <0>       0.0800
   45 H45       6.8943     0.6274     0.2715 H      1 <0>       0.0500
   46 H46       7.4138     2.3170     0.4814 H      1 <0>       0.0900
   47 H47       6.4716    -0.7088     2.2563 H      1 <0>       0.0500
   48 H48       6.6961     0.0480     3.8518 H      1 <0>       0.0900
   49 H49       4.7497     1.5100     3.4540 H      1 <0>       0.0700
   50 H50       4.2808    -0.1979     3.2655 H      1 <0>       0.0700
@<TRIPOS>BOND
   1    1    2 2
   2    2   21 am
   3    2    3 am
   4    3    4 1
   5    3   30 1
   6    4   20 ar
   7    4    5 ar
   8    5    6 ar
   9    6    7 ar
  10    6   31 1
  11    7    8 1
  12    7   19 ar
  13    8   18 ar
  14    8    9 ar
  15    9   10 ar
  16    9   32 1
  17   10   11 ar
  18   10   33 1
  19   11   12 1
  20   11   17 ar
  21   12   16 1
  22   12   13 2
  23   13   14 1
  24   14   15 1
  25   14   34 1
  26   15   16 2
  27   15   35 1
  28   17   18 ar
  29   17   36 1
  30   18   37 1
  31   19   20 ar
  32   20   21 1
  33   21   22 1
  34   22   23 1
  35   22   38 1
  36   22   39 1
  37   23   24 1
  38   23   40 1
  39   23   41 1
  40   24   29 1
  41   24   25 1
  42   24   42 1
  43   25   26 1
  44   25   43 1
  45   25   44 1
  46   26   27 1
  47   26   45 1
  48   26   46 1
  49   27   28 1
  50   28   29 1
  51   28   47 1
  52   28   48 1
  53   29   49 1
  54   29   50 1


@<TRIPOS>MOLECULE
O=C(N1C2=CC(C(F)(F)F)=CC=C2)C=CC3=C1C4=CC(C5=CN=C(N)C=C5)=CC=C4N=C3
47    51    1     0     0
SMALL
USER_CHARGES
@<TRIPOS>ATOM
1      N1      0.1403    1.3853   -1.5937 N.pl3    1 ZINC000071318831   -0.8500
2      C2      0.1597   -0.0032   -1.5510 C.ar     1 ZINC000071318831    0.4100
3      C3     -0.9685   -0.6929   -1.1160 C.ar     1 ZINC000071318831   -0.2400
4      C4     -0.9416   -2.0731   -1.0769 C.ar     1 ZINC000071318831   -0.0100
5      C5      0.2281   -2.7277   -1.4794 C.ar     1 ZINC000071318831   -0.1700
6      C6      0.3069   -4.2086   -1.4561 C.ar     1 ZINC000071318831   -0.0200
7      C7     -0.8158   -4.9727   -1.8041 C.ar     1 ZINC000071318831   -0.0800
8      C8     -0.7674   -6.3318   -1.7896 C.ar     1 ZINC000071318831   -0.0900
9      C9      0.4166   -6.9928   -1.4232 C.ar     1 ZINC000071318831    0.1600
10     N10     0.4705   -8.3333   -1.4069 N.ar     1 ZINC000071318831   -0.4900
11     C11     1.5531   -8.9857   -1.0723 C.ar     1 ZINC000071318831    0.2000
12     C12     2.7312   -8.3062   -0.7077 C.ar     1 ZINC000071318831   -0.1900
13     C13     2.7426   -6.9030   -0.7037 C.ar     1 ZINC000071318831    0.2400
14     C14     1.5553   -6.2273   -1.0707 C.ar     1 ZINC000071318831   -0.1200
15     C15     1.4912   -4.8306   -1.0959 C.ar     1 ZINC000071318831   -0.1300
16     N16     3.8786   -6.2257   -0.3530 N.am     1 ZINC000071318831   -0.4600
17     C17     3.8814   -4.8260   -0.3511 C.ar     1 ZINC000071318831    0.1200
18     C18     3.4784   -4.1309    0.7815 C.ar     1 ZINC000071318831   -0.0700
19     C19     3.4822   -2.7496    0.7802 C.ar     1 ZINC000071318831   -0.1000
20     C20     3.8863   -2.0590   -0.3474 C.ar     1 ZINC000071318831   -0.0500
21     C21     4.2883   -2.7483   -1.4771 C.ar     1 ZINC000071318831   -0.1800
22     C22     4.7285   -1.9916   -2.7038 C.3      1 ZINC000071318831    0.5100
23     F23     4.6443   -0.6168   -2.4587 F        1 ZINC000071318831   -0.1600
24     F24     6.0506   -2.3303   -3.0113 F        1 ZINC000071318831   -0.1700
25     F25     3.8992   -2.3251   -3.7800 F        1 ZINC000071318831   -0.1700
26     C26     4.2927   -4.1292   -1.4801 C.ar     1 ZINC000071318831   -0.0600
27     C27     4.9943   -6.8979   -0.0091 C.2      1 ZINC000071318831    0.5300
28     O28     5.9980   -6.2791    0.3007 O.2      1 ZINC000071318831   -0.5100
29     C29     5.0164   -8.3075   -0.0023 C.2      1 ZINC000071318831   -0.2200
30     C30     3.9067   -9.0101   -0.3449 C.2      1 ZINC000071318831    0.0000
31     C31     1.3166   -1.9696   -1.9024 C.ar     1 ZINC000071318831    0.1600
32     N32     1.2496   -0.6538   -1.9300 N.ar     1 ZINC000071318831   -0.5300
33     H33     0.9216    1.8721   -1.8996 H        1 ZINC000071318831    0.4100
34     H34    -0.6559    1.8678   -1.3214 H        1 ZINC000071318831    0.4100
35     H35    -1.8544   -0.1549   -0.8123 H        1 ZINC000071318831    0.1400
36     H36    -1.8023   -2.6337   -0.7434 H        1 ZINC000071318831    0.1400
37     H37    -1.7317   -4.4754   -2.0873 H        1 ZINC000071318831    0.1400
38     H38    -1.6420   -6.9046   -2.0604 H        1 ZINC000071318831    0.1500
39     H39     1.5434  -10.0657   -1.0753 H        1 ZINC000071318831    0.1800
40     H40     2.3571   -4.2414   -0.8323 H        1 ZINC000071318831    0.1600
41     H41     3.1619   -4.6697    1.6624 H        1 ZINC000071318831    0.1400
42     H42     3.1689   -2.2085    1.6607 H        1 ZINC000071318831    0.1500
43     H43     3.8878   -0.9790   -0.3462 H        1 ZINC000071318831    0.1500
44     H44     4.6067   -4.6669   -2.3626 H        1 ZINC000071318831    0.1400
45     H45     5.9195   -8.8302    0.2764 H        1 ZINC000071318831    0.1600
46     H46     3.9192  -10.0900   -0.3407 H        1 ZINC000071318831    0.1600
47     H47     2.2240   -2.4652   -2.2147 H        1 ZINC000071318831    0.1500
@<TRIPOS>BOND
1     1     2     1
2     1     33    1
3     1     34    1
4     2     32    ar
5     2     3     ar
6     3     4     ar
7     3     35    1
8     4     5     ar
9     4     36    1
10    5     6     1
11    5     31    ar
12    6     15    ar
13    6     7     ar
14    7     8     ar
15    7     37    1
16    8     9     ar
17    8     38    1
18    9     14    ar
19    9     10    ar
20    10    11    ar
21    11    12    ar
22    11    39    1
23    12    30    1
24    12    13    ar
25    13    14    ar
26    13    16    1
27    14    15    ar
28    15    40    1
29    16    17    1
30    16    27    am
31    17    26    ar
32    17    18    ar
33    18    19    ar
34    18    41    1
35    19    20    ar
36    19    42    1
37    20    21    ar
38    20    43    1
39    21    22    1
40    21    26    ar
41    22    23    1
42    22    24    1
43    22    25    1
44    26    44    1
45    27    28    2
46    27    29    1
47    29    30    2
48    29    45    1
49    30    46    1
50    31    32    ar
51    31    47    1
@<TRIPOS>SUBSTRUCTURE
1   ZINC000071318831 1     RESIDUE    1   A     ZIN   1


@<TRIPOS>MOLECULE
O=C(N1C2=CC(C(F)(F)F)=C(N3CCN(C(CC)=O)CC3)C=C2)C=CC4=C1C5=CC(C6=CN=C(C=CC=C7)C7=C6)=CC=C5N=C4
73    79    1     0     0
SMALL
USER_CHARGES
@<TRIPOS>ATOM
1      C1      0.5705    0.3832    5.1474 C.3      1 ZINC000064539506   -0.1400
2      C2      1.4119   -0.2590    4.0426 C.3      1 ZINC000064539506   -0.1400
3      C3      0.6520   -1.4114    3.4380 C.2      1 ZINC000064539506    0.5100
4      O4     -0.4844   -1.6416    3.7937 O.2      1 ZINC000064539506   -0.5400
5      N5      1.2351   -2.1861    2.5020 N.am     1 ZINC000064539506   -0.6200
6      C6      2.6484   -1.9986    2.1404 C.3      1 ZINC000064539506    0.1100
7      C7      3.3552   -3.3560    2.2190 C.3      1 ZINC000064539506    0.0400
8      N8      2.6277   -4.3317    1.3964 N.3      1 ZINC000064539506   -0.4800
9      C9      3.3301   -5.5374    1.3106 C.ar     1 ZINC000064539506    0.1800
10     C10     4.1796   -5.9211    2.3404 C.ar     1 ZINC000064539506   -0.1700
11     C11     4.8731   -7.1117    2.2555 C.ar     1 ZINC000064539506   -0.0500
12     C12     4.7219   -7.9255    1.1404 C.ar     1 ZINC000064539506    0.0900
13     N13     5.4259   -9.1338    1.0544 N.am     1 ZINC000064539506   -0.4600
14     C14     4.9508  -10.2310    1.6751 C.2      1 ZINC000064539506    0.5300
15     O15     3.9102  -10.1616    2.3067 O.2      1 ZINC000064539506   -0.5100
16     C16     5.6404  -11.4584    1.6038 C.2      1 ZINC000064539506   -0.2200
17     C17     6.8002  -11.5511    0.9044 C.2      1 ZINC000064539506    0.0000
18     C18     7.3030  -10.3988    0.2501 C.ar     1 ZINC000064539506   -0.1900
19     C19     8.5003  -10.4397   -0.4888 C.ar     1 ZINC000064539506    0.2000
20     N20     8.9614   -9.3745   -1.0914 N.ar     1 ZINC000064539506   -0.4900
21     C21     8.3291   -8.1926   -1.0433 C.ar     1 ZINC000064539506    0.1600
22     C22     8.8597   -7.0732   -1.7062 C.ar     1 ZINC000064539506   -0.0900
23     C23     8.2144   -5.8777   -1.6538 C.ar     1 ZINC000064539506   -0.0800
24     C24     7.0140   -5.7379   -0.9423 C.ar     1 ZINC000064539506   -0.0400
25     C25     6.3293   -4.4230   -0.9008 C.ar     1 ZINC000064539506   -0.1000
26     C26     5.2025   -4.2379   -0.0838 C.ar     1 ZINC000064539506    0.1100
27     N27     4.5782   -3.0889   -0.0277 N.ar     1 ZINC000064539506   -0.4300
28     C28     4.9820   -2.0346   -0.7445 C.ar     1 ZINC000064539506    0.1300
29     C29     4.2988   -0.8083   -0.6706 C.ar     1 ZINC000064539506   -0.1000
30     C30     4.7285    0.2510   -1.4092 C.ar     1 ZINC000064539506   -0.1000
31     C31     5.8399    0.1434   -2.2429 C.ar     1 ZINC000064539506   -0.1100
32     C32     6.5277   -1.0272   -2.3415 C.ar     1 ZINC000064539506   -0.1000
33     C33     6.1125   -2.1419   -1.5933 C.ar     1 ZINC000064539506   -0.1000
34     C34     6.8009   -3.3651   -1.6647 C.ar     1 ZINC000064539506   -0.0500
35     C35     6.4647   -6.8226   -0.2786 C.ar     1 ZINC000064539506   -0.1200
36     C36     7.1167   -8.0591   -0.3227 C.ar     1 ZINC000064539506   -0.1200
37     C37     6.5884   -9.1936    0.3362 C.ar     1 ZINC000064539506    0.2400
38     C38     3.8724   -7.5418    0.1104 C.ar     1 ZINC000064539506   -0.0400
39     C39     3.1742   -6.3546    0.1978 C.ar     1 ZINC000064539506   -0.1900
40     C40     2.2522   -5.9387   -0.9194 C.3      1 ZINC000064539506    0.5200
41     F41     2.3861   -6.8289   -1.9903 F        1 ZINC000064539506   -0.1800
42     F42     0.9299   -5.9539   -0.4628 F        1 ZINC000064539506   -0.1700
43     F43     2.5848   -4.6472   -1.3421 F        1 ZINC000064539506   -0.1500
44     C44     1.2676   -4.5500    1.9065 C.3      1 ZINC000064539506    0.0300
45     C45     0.4769   -3.2456    1.8194 C.3      1 ZINC000064539506    0.1200
46     H46     0.2852   -0.3767    5.8749 H        1 ZINC000064539506    0.0600
47     H47     1.1531    1.1599    5.6428 H        1 ZINC000064539506    0.0600
48     H48    -0.3262    0.8238    4.7116 H        1 ZINC000064539506    0.0600
49     H49     1.6241    0.4811    3.2709 H        1 ZINC000064539506    0.0900
50     H50     2.3487   -0.6230    4.4644 H        1 ZINC000064539506    0.0900
51     H51     2.7179   -1.6079    1.1252 H        1 ZINC000064539506    0.0900
52     H52     3.1152   -1.3019    2.8366 H        1 ZINC000064539506    0.0900
53     H53     4.3755   -3.2568    1.8485 H        1 ZINC000064539506    0.1200
54     H54     3.3752   -3.6962    3.2543 H        1 ZINC000064539506    0.0400
55     H55     4.2977   -5.2879    3.2073 H        1 ZINC000064539506    0.1600
56     H56     5.5336   -7.4101    3.0562 H        1 ZINC000064539506    0.1500
57     H57     5.2449  -12.3279    2.1076 H        1 ZINC000064539506    0.1600
58     H58     7.3322  -12.4892    0.8477 H        1 ZINC000064539506    0.1600
59     H59     9.0485  -11.3675   -0.5590 H        1 ZINC000064539506    0.1800
60     H60     9.7833   -7.1626   -2.2589 H        1 ZINC000064539506    0.1500
61     H61     8.6321   -5.0239   -2.1667 H        1 ZINC000064539506    0.1400
62     H62     4.8422   -5.0634    0.5121 H        1 ZINC000064539506    0.1700
63     H63     3.4352   -0.7071   -0.0299 H        1 ZINC000064539506    0.1400
64     H64     4.1992    1.1905   -1.3484 H        1 ZINC000064539506    0.1300
65     H65     6.1594    0.9996   -2.8185 H        1 ZINC000064539506    0.1300
66     H66     7.3878   -1.0987   -2.9907 H        1 ZINC000064539506    0.1300
67     H67     7.6681   -3.4794   -2.2981 H        1 ZINC000064539506    0.1400
68     H68     5.5403   -6.7141    0.2693 H        1 ZINC000064539506    0.1600
69     H69     3.7549   -8.1748   -0.7567 H        1 ZINC000064539506    0.1500
70     H70     0.7738   -5.3167    1.3095 H        1 ZINC000064539506    0.1100
71     H71     1.3166   -4.8736    2.9462 H        1 ZINC000064539506    0.0500
72     H72    -0.4928   -3.3723    2.3010 H        1 ZINC000064539506    0.1000
73     H73     0.3365   -2.9716    0.7738 H        1 ZINC000064539506    0.0800
@<TRIPOS>BOND
1     1     2     1
2     1     46    1
3     1     47    1
4     1     48    1
5     2     3     1
6     2     49    1
7     2     50    1
8     3     4     2
9     3     5     am
10    5     45    1
11    5     6     1
12    6     7     1
13    6     51    1
14    6     52    1
15    7     8     1
16    7     53    1
17    7     54    1
18    8     9     1
19    8     44    1
20    9     39    ar
21    9     10    ar
22    10    11    ar
23    10    55    1
24    11    12    ar
25    11    56    1
26    12    13    1
27    12    38    ar
28    13    37    1
29    13    14    am
30    14    15    2
31    14    16    1
32    16    17    2
33    16    57    1
34    17    18    1
35    17    58    1
36    18    37    ar
37    18    19    ar
38    19    20    ar
39    19    59    1
40    20    21    ar
41    21    36    ar
42    21    22    ar
43    22    23    ar
44    22    60    1
45    23    24    ar
46    23    61    1
47    24    25    1
48    24    35    ar
49    25    34    ar
50    25    26    ar
51    26    27    ar
52    26    62    1
53    27    28    ar
54    28    33    ar
55    28    29    ar
56    29    30    ar
57    29    63    1
58    30    31    ar
59    30    64    1
60    31    32    ar
61    31    65    1
62    32    33    ar
63    32    66    1
64    33    34    ar
65    34    67    1
66    35    36    ar
67    35    68    1
68    36    37    ar
69    38    39    ar
70    38    69    1
71    39    40    1
72    40    41    1
73    40    42    1
74    40    43    1
75    44    45    1
76    44    70    1
77    44    71    1
78    45    72    1
79    45    73    1
@<TRIPOS>SUBSTRUCTURE
1   ZINC000064539506 1     RESIDUE    1   A     ZIN   1


@<TRIPOS>MOLECULE
NC1=CC=C(C2=CC=C(OCCN(C(C3=CC=C(S(=O)(C)=O)C(F)=C3C)=O)C4)C4=C2)C=N1
54    57    1     0     0
SMALL
USER_CHARGES
@<TRIPOS>ATOM
1      C1     -1.8321    0.7560   -0.4127 C.3      1 ZINC000095550928   -0.1200
2      C2     -0.8458   -0.3640   -0.2032 C.ar     1 ZINC000095550928   -0.0900
3      C3     -0.0256   -0.7792   -1.2527 C.ar     1 ZINC000095550928   -0.0500
4      C4     -0.1206   -0.1219   -2.5737 C.2      1 ZINC000095550928    0.5600
5      O5     -0.0434    1.0883   -2.6573 O.2      1 ZINC000095550928   -0.5100
6      N6     -0.2926   -0.8645   -3.6852 N.am     1 ZINC000095550928   -0.6000
7      C7     -0.5227   -2.3054   -3.5686 C.3      1 ZINC000095550928    0.0600
8      C8     -1.8986   -2.6875   -4.0945 C.3      1 ZINC000095550928    0.0500
9      O9     -2.0074   -2.3524   -5.4826 O.3      1 ZINC000095550928   -0.3200
10     C10    -2.4607   -1.1036   -5.7559 C.ar     1 ZINC000095550928    0.1000
11     C11    -3.7260   -0.9240   -6.3008 C.ar     1 ZINC000095550928   -0.1200
12     C12    -4.2018    0.3490   -6.5360 C.ar     1 ZINC000095550928   -0.1000
13     C13    -3.4179    1.4589   -6.2263 C.ar     1 ZINC000095550928   -0.0300
14     C14    -3.9394    2.8279   -6.4604 C.ar     1 ZINC000095550928   -0.1600
15     C15    -5.2217    3.0180   -6.9873 C.ar     1 ZINC000095550928   -0.0200
16     C16    -5.6644    4.3108   -7.1881 C.ar     1 ZINC000095550928   -0.2400
17     C17    -4.8273    5.3740   -6.8623 C.ar     1 ZINC000095550928    0.4100
18     N18    -5.2656    6.6777   -7.0608 N.pl3    1 ZINC000095550928   -0.8500
19     N19    -3.6186    5.1593   -6.3650 N.ar     1 ZINC000095550928   -0.5400
20     C20    -3.1620    3.9412   -6.1534 C.ar     1 ZINC000095550928    0.1700
21     C21    -2.1402    1.2769   -5.6946 C.ar     1 ZINC000095550928   -0.0800
22     C22    -1.6682    0.0036   -5.4834 C.ar     1 ZINC000095550928   -0.1300
23     C23    -0.2541   -0.2228   -5.0032 C.3      1 ZINC000095550928    0.1600
24     C24     0.8853   -1.8175   -1.0506 C.ar     1 ZINC000095550928   -0.1200
25     C25     0.9703   -2.4272    0.1839 C.ar     1 ZINC000095550928    0.0000
26     C26     0.1549   -2.0127    1.2218 C.ar     1 ZINC000095550928   -0.6800
27     S27     0.2702   -2.7973    2.7953 S.o2     1 ZINC000095550928    2.5000
28     C28     0.8717   -1.4960    3.9068 C.3      1 ZINC000095550928   -0.6500
29     O29    -1.0707   -3.1440    3.1131 O.2      1 ZINC000095550928   -0.9200
30     O30     1.2629   -3.7981    2.6159 O.2      1 ZINC000095550928   -0.9300
31     C31    -0.7475   -0.9788    1.0308 C.ar     1 ZINC000095550928    0.1900
32     F32    -1.5408   -0.5792    2.0487 F        1 ZINC000095550928   -0.1100
33     H33    -1.3298    1.7133   -0.2732 H        1 ZINC000095550928    0.0900
34     H34    -2.2349    0.7010   -1.4240 H        1 ZINC000095550928    0.0800
35     H35    -2.6449    0.6639    0.3077 H        1 ZINC000095550928    0.0800
36     H36     0.2384   -2.8361   -4.1405 H        1 ZINC000095550928    0.0900
37     H37    -0.4477   -2.5955   -2.5206 H        1 ZINC000095550928    0.1000
38     H38    -2.0483   -3.7599   -3.9690 H        1 ZINC000095550928    0.1100
39     H39    -2.6623   -2.1501   -3.5323 H        1 ZINC000095550928    0.0600
40     H40    -4.3371   -1.7816   -6.5407 H        1 ZINC000095550928    0.1300
41     H41    -5.1848    0.4861   -6.9618 H        1 ZINC000095550928    0.1300
42     H42    -5.8499    2.1742   -7.2315 H        1 ZINC000095550928    0.1400
43     H43    -6.6484    4.4946   -7.5934 H        1 ZINC000095550928    0.1300
44     H44    -6.1497    6.8421   -7.4244 H        1 ZINC000095550928    0.4100
45     H45    -4.6873    7.4234   -6.8359 H        1 ZINC000095550928    0.4100
46     H46    -2.1709    3.8051   -5.7465 H        1 ZINC000095550928    0.1600
47     H47    -1.5263    2.1314   -5.4510 H        1 ZINC000095550928    0.1300
48     H48     0.2632    0.7335   -4.9261 H        1 ZINC000095550928    0.1000
49     H49     0.2714   -0.8693   -5.7060 H        1 ZINC000095550928    0.1000
50     H50     1.5224   -2.1432   -1.8596 H        1 ZINC000095550928    0.1500
51     H51     1.6750   -3.2305    0.3405 H        1 ZINC000095550928    0.1700
52     H52     0.1619   -0.6689    3.9156 H        1 ZINC000095550928    0.1300
53     H53     0.9739   -1.8978    4.9149 H        1 ZINC000095550928    0.1400
54     H54     1.8409   -1.1394    3.5579 H        1 ZINC000095550928    0.1400
@<TRIPOS>BOND
1     1     2     1
2     1     33    1
3     1     34    1
4     1     35    1
5     2     31    ar
6     2     3     ar
7     3     4     1
8     3     24    ar
9     4     5     2
10    4     6     am
11    6     23    1
12    6     7     1
13    7     8     1
14    7     36    1
15    7     37    1
16    8     9     1
17    8     38    1
18    8     39    1
19    9     10    1
20    10    22    ar
21    10    11    ar
22    11    12    ar
23    11    40    1
24    12    13    ar
25    12    41    1
26    13    14    1
27    13    21    ar
28    14    20    ar
29    14    15    ar
30    15    16    ar
31    15    42    1
32    16    17    ar
33    16    43    1
34    17    18    1
35    17    19    ar
36    18    44    1
37    18    45    1
38    19    20    ar
39    20    46    1
40    21    22    ar
41    21    47    1
42    22    23    1
43    23    48    1
44    23    49    1
45    24    25    ar
46    24    50    1
47    25    26    ar
48    25    51    1
49    26    27    1
50    26    31    ar
51    27    28    1
52    27    29    2
53    27    30    2
54    28    52    1
55    28    53    1
56    28    54    1
57    31    32    1
@<TRIPOS>SUBSTRUCTURE
1   ZINC000095550928 1     RESIDUE    1   A     ZIN   1


@<TRIPOS>MOLECULE
O=C(N)C1=C(NC2=CC(C(F)(F)F)=C(N3CCNCC3)C=C2)C(C=C(C4=CN=C(C=CC=C5)C5=C4)C=C6)=C6N=C1
65    70    1     0     0
SMALL
USER_CHARGES
@<TRIPOS>ATOM
1      N1     -1.8827   -0.5601   -3.2760 N.am     1 ZINC000653757103   -0.8500
2      C2     -1.2465   -1.2290   -2.2940 C.2      1 ZINC000653757103    0.5700
3      O3     -0.1400   -1.6934   -2.4925 O.2      1 ZINC000653757103   -0.5200
4      C4     -1.8907   -1.3974   -0.9811 C.ar     1 ZINC000653757103   -0.2100
5      C5     -3.1132   -0.7657   -0.7041 C.ar     1 ZINC000653757103    0.1700
6      N6     -3.7080   -0.8979    0.4538 N.ar     1 ZINC000653757103   -0.4700
7      C7     -3.1878   -1.6412    1.4406 C.ar     1 ZINC000653757103    0.1500
8      C8     -3.8549   -1.7611    2.6718 C.ar     1 ZINC000653757103   -0.0900
9      C9     -3.3202   -2.5169    3.6672 C.ar     1 ZINC000653757103   -0.0800
10     C10    -2.1012   -3.1873    3.4872 C.ar     1 ZINC000653757103   -0.0300
11     C11    -1.5392   -4.0051    4.5894 C.ar     1 ZINC000653757103   -0.1100
12     C12    -0.2692   -4.5894    4.4598 C.ar     1 ZINC000653757103    0.1500
13     N13     0.2517   -5.3158    5.4159 N.ar     1 ZINC000653757103   -0.4700
14     C14    -0.3989   -5.5377    6.5630 C.ar     1 ZINC000653757103    0.1300
15     C15     0.1773   -6.3199    7.5791 C.ar     1 ZINC000653757103   -0.0900
16     C16    -0.5036   -6.5311    8.7384 C.ar     1 ZINC000653757103   -0.1000
17     C17    -1.7694   -5.9841    8.9395 C.ar     1 ZINC000653757103   -0.1100
18     C18    -2.3606   -5.2212    7.9795 C.ar     1 ZINC000653757103   -0.1000
19     C19    -1.6866   -4.9817    6.7699 C.ar     1 ZINC000653757103   -0.1000
20     C20    -2.2622   -4.1936    5.7585 C.ar     1 ZINC000653757103   -0.0400
21     C21    -1.4202   -3.0898    2.2854 C.ar     1 ZINC000653757103   -0.0700
22     C22    -1.9574   -2.3151    1.2509 C.ar     1 ZINC000653757103   -0.1100
23     C23    -1.2922   -2.1960    0.0057 C.ar     1 ZINC000653757103    0.2800
24     N24    -0.0962   -2.8379   -0.2267 N.pl3    1 ZINC000653757103   -0.6900
25     C25    -0.0889   -4.1400   -0.7406 C.ar     1 ZINC000653757103    0.2200
26     C26    -1.2798   -4.7400   -1.1285 C.ar     1 ZINC000653757103   -0.1400
27     C27    -1.2726   -6.0243   -1.6354 C.ar     1 ZINC000653757103   -0.1000
28     C28    -0.0747   -6.7162   -1.7569 C.ar     1 ZINC000653757103    0.0900
29     N29    -0.0675   -8.0178   -2.2701 N.3      1 ZINC000653757103   -0.5000
30     C30    -0.8130   -8.9331   -1.3949 C.3      1 ZINC000653757103    0.0600
31     C31    -0.7145  -10.3569   -1.9478 C.3      1 ZINC000653757103    0.0600
32     N32    -1.2511  -10.3866   -3.3156 N.3      1 ZINC000653757103   -0.6900
33     C33    -0.5056   -9.4713   -4.1908 C.3      1 ZINC000653757103    0.0600
34     C34    -0.6041   -8.0476   -3.6379 C.3      1 ZINC000653757103    0.0600
35     C35     1.1165   -6.1159   -1.3693 C.ar     1 ZINC000653757103   -0.1100
36     C36     2.4166   -6.8663   -1.5021 C.3      1 ZINC000653757103    0.5200
37     F37     3.4680   -6.0611   -1.0511 F        1 ZINC000653757103   -0.1800
38     F38     2.3613   -8.0344   -0.7341 F        1 ZINC000653757103   -0.1700
39     F39     2.6274   -7.2001   -2.8442 F        1 ZINC000653757103   -0.1700
40     C40     1.1101   -4.8298   -0.8679 C.ar     1 ZINC000653757103   -0.1300
41     H41    -1.4582   -0.4491   -4.1411 H        1 ZINC000653757103    0.4100
42     H42    -2.7668   -0.1932   -3.1189 H        1 ZINC000653757103    0.4000
43     H43    -3.5744   -0.1548   -1.4660 H        1 ZINC000653757103    0.1700
44     H44    -4.7943   -1.2514    2.8276 H        1 ZINC000653757103    0.1500
45     H45    -3.8409   -2.6021    4.6096 H        1 ZINC000653757103    0.1400
46     H46     0.2912   -4.4362    3.5493 H        1 ZINC000653757103    0.1600
47     H47     1.1572   -6.7521    7.4400 H        1 ZINC000653757103    0.1400
48     H48    -0.0556   -7.1329    9.5153 H        1 ZINC000653757103    0.1300
49     H49    -2.2881   -6.1680    9.8688 H        1 ZINC000653757103    0.1300
50     H50    -3.3421   -4.8027    8.1464 H        1 ZINC000653757103    0.1300
51     H51    -3.2392   -3.7514    5.8859 H        1 ZINC000653757103    0.1400
52     H52    -0.4821   -3.6069    2.1476 H        1 ZINC000653757103    0.1400
53     H53     0.7412   -2.3878   -0.0342 H        1 ZINC000653757103    0.4200
54     H54    -2.2115   -4.2022   -1.0334 H        1 ZINC000653757103    0.1200
55     H55    -2.1987   -6.4910   -1.9371 H        1 ZINC000653757103    0.1300
56     H56    -0.3890   -8.9027   -0.3912 H        1 ZINC000653757103    0.0800
57     H57    -1.8591   -8.6291   -1.3575 H        1 ZINC000653757103    0.0500
58     H58     0.3292  -10.6709   -1.9598 H        1 ZINC000653757103    0.0400
59     H59    -1.2908  -11.0330   -1.3163 H        1 ZINC000653757103    0.0800
60     H60    -1.2460  -11.3253   -3.6857 H        1 ZINC000653757103    0.3500
61     H61     0.5405   -9.7753   -4.2282 H        1 ZINC000653757103    0.0400
62     H62    -0.9296   -9.5018   -5.1945 H        1 ZINC000653757103    0.0800
63     H63    -1.6478   -7.7336   -3.6259 H        1 ZINC000653757103    0.0500
64     H64    -0.0278   -7.3715   -4.2694 H        1 ZINC000653757103    0.0800
65     H65     2.0362   -4.3630   -0.5665 H        1 ZINC000653757103    0.1400
@<TRIPOS>BOND
1     1     2     am
2     1     41    1
3     1     42    1
4     2     3     2
5     2     4     1
6     4     23    ar
7     4     5     ar
8     5     6     ar
9     5     43    1
10    6     7     ar
11    7     22    ar
12    7     8     ar
13    8     9     ar
14    8     44    1
15    9     10    ar
16    9     45    1
17    10    11    1
18    10    21    ar
19    11    20    ar
20    11    12    ar
21    12    13    ar
22    12    46    1
23    13    14    ar
24    14    19    ar
25    14    15    ar
26    15    16    ar
27    15    47    1
28    16    17    ar
29    16    48    1
30    17    18    ar
31    17    49    1
32    18    19    ar
33    18    50    1
34    19    20    ar
35    20    51    1
36    21    22    ar
37    21    52    1
38    22    23    ar
39    23    24    1
40    24    25    1
41    24    53    1
42    25    40    ar
43    25    26    ar
44    26    27    ar
45    26    54    1
46    27    28    ar
47    27    55    1
48    28    29    1
49    28    35    ar
50    29    34    1
51    29    30    1
52    30    31    1
53    30    56    1
54    30    57    1
55    31    32    1
56    31    58    1
57    31    59    1
58    32    33    1
59    32    60    1
60    33    34    1
61    33    61    1
62    33    62    1
63    34    63    1
64    34    64    1
65    35    36    1
66    35    40    ar
67    36    37    1
68    36    38    1
69    36    39    1
70    40    65    1
@<TRIPOS>SUBSTRUCTURE
1   ZINC000653757103 1     RESIDUE    1   A     ZIN   1


@<TRIPOS>MOLECULE
COC1=C(NS(C2=C(F)C=C(F)C=C2)(=O)=O)C=C(C3=CC=C(N=CC=C4C#CCN5CCN(S(C)(=O)=O)CC5)C4=C3)C=N1
69    73    1     0     0
SMALL
USER_CHARGES
@<TRIPOS>ATOM
1      C1     -0.0173    1.4248    0.0099 C.3      1 ZINC000653691199    0.0600
2      O2      0.0021   -0.0041    0.0020 O.3      1 ZINC000653691199   -0.3200
3      C3     -1.1989   -0.6368    0.0101 C.ar     1 ZINC000653691199    0.2000
4      N4     -2.3117    0.0757    0.0190 N.ar     1 ZINC000653691199   -0.5000
5      C5     -3.5019   -0.4924    0.0267 C.ar     1 ZINC000653691199    0.0400
6      C6     -3.6302   -1.8782    0.0260 C.ar     1 ZINC000653691199   -0.1000
7      C7     -4.9726   -2.5088    0.0346 C.ar     1 ZINC000653691199    0.0100
8      C8     -5.0864   -3.9075    0.0397 C.ar     1 ZINC000653691199   -0.0900
9      C9     -6.3042   -4.5097    0.0472 C.ar     1 ZINC000653691199   -0.0900
10     C10    -7.4753   -3.7303    0.0505 C.ar     1 ZINC000653691199    0.1200
11     N11    -8.6827   -4.3031    0.0583 N.ar     1 ZINC000653691199   -0.4700
12     C12    -9.7917   -3.6057    0.0619 C.ar     1 ZINC000653691199    0.1200
13     C13    -9.8027   -2.2173    0.0580 C.ar     1 ZINC000653691199   -0.1500
14     C14    -8.5958   -1.5225    0.0498 C.ar     1 ZINC000653691199    0.0700
15     C15    -8.5588   -0.0910    0.0460 C.1      1 ZINC000653691199   -0.1300
16     C16    -8.5285    1.0826    0.0428 C.1      1 ZINC000653691199   -0.1300
17     C17    -8.4905    2.5541    0.0389 C.3      1 ZINC000653691199    0.1700
18     N18    -7.0933    3.0078    0.0303 N.3      1 ZINC000653691199   -0.5300
19     C19    -6.2916    2.2619    1.0095 C.3      1 ZINC000653691199    0.0400
20     C20    -4.8142    2.6337    0.8444 C.3      1 ZINC000653691199    0.1200
21     N21    -4.6890    4.0970    0.9237 N.am     1 ZINC000653691199   -1.0000
22     S22    -3.5955    4.8024    1.9479 S.o2     1 ZINC000653691199    2.6100
23     C23    -2.0840    4.9602    0.9573 C.3      1 ZINC000653691199   -0.6700
24     O24    -4.1477    6.0825    2.2225 O.2      1 ZINC000653691199   -0.9600
25     O25    -3.4160    3.8447    2.9823 O.2      1 ZINC000653691199   -0.9500
26     C26    -5.5605    4.9173    0.0687 C.3      1 ZINC000653691199    0.1200
27     C27    -7.0085    4.4556    0.2644 C.3      1 ZINC000653691199    0.0400
28     C28    -7.3664   -2.3175    0.0459 C.ar     1 ZINC000653691199   -0.0700
29     C29    -6.1067   -1.7139    0.0434 C.ar     1 ZINC000653691199   -0.1100
30     C30    -2.4755   -2.6686    0.0167 C.ar     1 ZINC000653691199   -0.1200
31     C31    -1.2432   -2.0326    0.0030 C.ar     1 ZINC000653691199    0.2400
32     N32    -0.0595   -2.7797   -0.0068 N.pl3    1 ZINC000653691199   -1.0900
33     S33     1.4061   -2.0088   -0.0230 S.o2     1 ZINC000653691199    2.6300
34     O34     1.4955   -1.3432   -1.2753 O.2      1 ZINC000653691199   -1.0100
35     O35     1.5200   -1.3371    1.2240 O.2      1 ZINC000653691199   -1.0000
36     C36     2.6511   -3.2556   -0.0322 C.ar     1 ZINC000653691199   -0.6800
37     C37     3.4901   -3.3858   -1.1224 C.ar     1 ZINC000653691199    0.0200
38     C38     4.4676   -4.3631   -1.1308 C.ar     1 ZINC000653691199   -0.1900
39     C39     4.6071   -5.2128   -0.0466 C.ar     1 ZINC000653691199    0.1600
40     F40     5.5628   -6.1676   -0.0548 F        1 ZINC000653691199   -0.1300
41     C41     3.7671   -5.0832    1.0462 C.ar     1 ZINC000653691199   -0.2200
42     C42     2.7922   -4.1009    1.0557 C.ar     1 ZINC000653691199    0.2300
43     F43     1.9718   -3.9734    2.1215 F        1 ZINC000653691199   -0.1100
44     H44     1.0053    1.8021    0.0021 H        1 ZINC000653691199    0.0800
45     H45    -0.5445    1.7859   -0.8732 H        1 ZINC000653691199    0.0500
46     H46    -0.5275    1.7763    0.9067 H        1 ZINC000653691199    0.0500
47     H47    -4.3878    0.1253    0.0339 H        1 ZINC000653691199    0.1400
48     H48    -4.1928   -4.5141    0.0372 H        1 ZINC000653691199    0.1400
49     H49    -6.3733   -5.5875    0.0502 H        1 ZINC000653691199    0.1400
50     H50   -10.7350   -4.1317    0.0679 H        1 ZINC000653691199    0.1600
51     H51   -10.7398   -1.6804    0.0609 H        1 ZINC000653691199    0.1400
52     H52    -8.9994    2.9283   -0.8494 H        1 ZINC000653691199    0.1100
53     H53    -8.9900    2.9328    0.9306 H        1 ZINC000653691199    0.0600
54     H54    -6.6201    2.5156    2.0174 H        1 ZINC000653691199    0.0400
55     H55    -6.4181    1.1920    0.8438 H        1 ZINC000653691199    0.0900
56     H56    -4.2294    2.1726    1.6404 H        1 ZINC000653691199    0.1000
57     H57    -4.4556    2.2875   -0.1249 H        1 ZINC000653691199    0.0800
58     H58    -2.2846    5.5824    0.0851 H        1 ZINC000653691199    0.1300
59     H59    -1.3012    5.4208    1.5599 H        1 ZINC000653691199    0.1300
60     H60    -1.7582    3.9723    0.6318 H        1 ZINC000653691199    0.1300
61     H61    -5.4692    5.9659    0.3518 H        1 ZINC000653691199    0.1000
62     H62    -5.2736    4.7906   -0.9752 H        1 ZINC000653691199    0.0800
63     H63    -7.6550    4.9766   -0.4418 H        1 ZINC000653691199    0.0900
64     H64    -7.3270    4.6787    1.2826 H        1 ZINC000653691199    0.0400
65     H65    -6.0180   -0.6375    0.0440 H        1 ZINC000653691199    0.1300
66     H66    -2.5423   -3.7465    0.0163 H        1 ZINC000653691199    0.1300
67     H67     3.3818   -2.7237   -1.9688 H        1 ZINC000653691199    0.1600
68     H68     5.1226   -4.4643   -1.9836 H        1 ZINC000653691199    0.1500
69     H69     3.8752   -5.7456    1.8924 H        1 ZINC000653691199    0.1500
@<TRIPOS>BOND
1     1     2     1
2     1     44    1
3     1     45    1
4     1     46    1
5     2     3     1
6     3     31    ar
7     3     4     ar
8     4     5     ar
9     5     6     ar
10    5     47    1
11    6     7     1
12    6     30    ar
13    7     29    ar
14    7     8     ar
15    8     9     ar
16    8     48    1
17    9     10    ar
18    9     49    1
19    10    28    ar
20    10    11    ar
21    11    12    ar
22    12    13    ar
23    12    50    1
24    13    14    ar
25    13    51    1
26    14    15    1
27    14    28    ar
28    15    16    3
29    16    17    1
30    17    18    1
31    17    52    1
32    17    53    1
33    18    27    1
34    18    19    1
35    19    20    1
36    19    54    1
37    19    55    1
38    20    21    1
39    20    56    1
40    20    57    1
41    21    22    am
42    21    26    1
43    22    23    1
44    22    24    2
45    22    25    2
46    23    58    1
47    23    59    1
48    23    60    1
49    26    27    1
50    26    61    1
51    26    62    1
52    27    63    1
53    27    64    1
54    28    29    ar
55    29    65    1
56    30    31    ar
57    30    66    1
58    31    32    1
59    32    33    1
60    33    34    2
61    33    35    2
62    33    36    1
63    36    42    ar
64    36    37    ar
65    37    38    ar
66    37    67    1
67    38    39    ar
68    38    68    1
69    39    40    1
70    39    41    ar
71    41    42    ar
72    41    69    1
73    42    43    1
@<TRIPOS>SUBSTRUCTURE
1   ZINC000653691199 1     RESIDUE    1   A     ZIN   1


@<TRIPOS>MOLECULE
COC1=CC(/C=N/NC2=NC(N3CCOCC3)=NC(N4CCOCC4)=N2)=CC(OC)=C1O
59    62    1     0     0
SMALL
USER_CHARGES
@<TRIPOS>ATOM
1      C1     -0.0173    1.4248    0.0099 C.3      1 ZINC000006906035    0.0200
2      O2      0.0021   -0.0041    0.0020 O.3      1 ZINC000006906035   -0.3000
3      C3     -1.2011   -0.6379    0.0101 C.ar     1 ZINC000006906035    0.1400
4      C4     -2.3748    0.1005    0.0195 C.ar     1 ZINC000006906035   -0.2000
5      C5     -3.5982   -0.5428    0.0277 C.ar     1 ZINC000006906035   -0.0200
6      C6     -4.8712    0.2637    0.0379 C.3      1 ZINC000006906035    0.0600
7      N7     -5.2938    0.5266   -1.3400 N.2      1 ZINC000006906035   -0.1300
8      N8     -6.3967    0.1229   -1.7380 N.2      1 ZINC000006906035   -0.1800
9      C9     -6.7936    0.3698   -3.0323 C.ar     1 ZINC000006906035    0.5500
10     N10    -5.9925    1.0364   -3.8576 N.ar     1 ZINC000006906035   -0.5900
11     C11    -6.3764    1.2749   -5.1082 C.ar     1 ZINC000006906035    0.5700
12     N12    -5.5445    1.9665   -5.9654 N.3      1 ZINC000006906035   -0.4500
13     C13    -5.2700    1.1837   -7.1790 C.3      1 ZINC000006906035    0.0300
14     C14    -4.3950    2.0097   -8.1256 C.3      1 ZINC000006906035    0.0600
15     O15    -3.1965    2.3932   -7.4461 O.3      1 ZINC000006906035   -0.3800
16     C16    -3.4269    3.1578   -6.2596 C.3      1 ZINC000006906035    0.0600
17     C17    -4.2920    2.3433   -5.2941 C.3      1 ZINC000006906035    0.0300
18     N18    -7.5605    0.8470   -5.5330 N.ar     1 ZINC000006906035   -0.5700
19     C19    -8.3615    0.1807   -4.7082 C.ar     1 ZINC000006906035    0.5700
20     N20    -9.5912   -0.2640   -5.1498 N.3      1 ZINC000006906035   -0.4500
21     C21   -10.3981    0.8492   -5.6705 C.3      1 ZINC000006906035    0.0300
22     C22   -11.7261    0.3045   -6.2030 C.3      1 ZINC000006906035    0.0600
23     O23   -12.3960   -0.4081   -5.1595 O.3      1 ZINC000006906035   -0.3800
24     C24   -11.6388   -1.4996   -4.6297 C.3      1 ZINC000006906035    0.0600
25     C25   -10.3099   -0.9731   -4.0812 C.3      1 ZINC000006906035    0.0300
26     N26    -7.9759   -0.0629   -3.4591 N.ar     1 ZINC000006906035   -0.5600
27     C27    -3.6572   -1.9238    0.0261 C.ar     1 ZINC000006906035   -0.2200
28     C28    -2.4882   -2.6696    0.0168 C.ar     1 ZINC000006906035    0.1400
29     O29    -2.5472   -4.0282    0.0153 O.3      1 ZINC000006906035   -0.3000
30     C30    -3.8474   -4.6211    0.0237 C.3      1 ZINC000006906035    0.0200
31     C31    -1.2561   -2.0266    0.0032 C.ar     1 ZINC000006906035    0.0500
32     O32    -0.1065   -2.7549   -0.0060 O.3      1 ZINC000006906035   -0.4700
33     H33     1.0053    1.8021    0.0021 H        1 ZINC000006906035    0.1000
34     H34    -0.5445    1.7859   -0.8732 H        1 ZINC000006906035    0.0600
35     H35    -0.5275    1.7763    0.9067 H        1 ZINC000006906035    0.0600
36     H36    -2.3329    1.1797    0.0207 H        1 ZINC000006906035    0.1400
37     H37    -5.6507   -0.2943    0.5568 H        1 ZINC000006906035    0.0900
38     H38    -4.6981    1.2094    0.5515 H        1 ZINC000006906035    0.1300
39     H39    -4.7483    0.2653   -6.9096 H        1 ZINC000006906035    0.0600
40     H40    -6.2096    0.9375   -7.6737 H        1 ZINC000006906035    0.1100
41     H41    -4.1416    1.4123   -9.0014 H        1 ZINC000006906035    0.1100
42     H42    -4.9380    2.9019   -8.4375 H        1 ZINC000006906035    0.0700
43     H43    -2.4733    3.3907   -5.7858 H        1 ZINC000006906035    0.1100
44     H44    -3.9417    4.0834   -6.5172 H        1 ZINC000006906035    0.0600
45     H45    -4.5177    2.9437   -4.4128 H        1 ZINC000006906035    0.1000
46     H46    -3.7547    1.4436   -4.9945 H        1 ZINC000006906035    0.0700
47     H47   -10.5923    1.5634   -4.8702 H        1 ZINC000006906035    0.0600
48     H48    -9.8579    1.3440   -6.4776 H        1 ZINC000006906035    0.1100
49     H49   -12.3511    1.1324   -6.5377 H        1 ZINC000006906035    0.1100
50     H50   -11.5345   -0.3687   -7.0386 H        1 ZINC000006906035    0.0700
51     H51   -12.2007   -1.9764   -3.8265 H        1 ZINC000006906035    0.1100
52     H52   -11.4447   -2.2252   -5.4195 H        1 ZINC000006906035    0.0600
53     H53    -9.7053   -1.8085   -3.7282 H        1 ZINC000006906035    0.1000
54     H54   -10.5028   -0.2881   -3.2556 H        1 ZINC000006906035    0.0700
55     H55    -4.6151   -2.4227    0.0325 H        1 ZINC000006906035    0.1400
56     H56    -3.7517   -5.7069    0.0215 H        1 ZINC000006906035    0.1100
57     H57    -4.3849   -4.3056    0.9179 H        1 ZINC000006906035    0.0600
58     H58    -4.3975   -4.3031   -0.8620 H        1 ZINC000006906035    0.0600
59     H59     0.2172   -2.9677   -0.8921 H        1 ZINC000006906035    0.3800
@<TRIPOS>BOND
1     1     2     1
2     1     33    1
3     1     34    1
4     1     35    1
5     2     3     1
6     3     31    ar
7     3     4     ar
8     4     5     ar
9     4     36    1
10    5     6     1
11    5     27    ar
12    6     7     1
13    6     37    1
14    6     38    1
15    7     8     2
16    8     9     1
17    9     26    ar
18    9     10    ar
19    10    11    ar
20    11    12    1
21    11    18    ar
22    12    17    1
23    12    13    1
24    13    14    1
25    13    39    1
26    13    40    1
27    14    15    1
28    14    41    1
29    14    42    1
30    15    16    1
31    16    17    1
32    16    43    1
33    16    44    1
34    17    45    1
35    17    46    1
36    18    19    ar
37    19    20    1
38    19    26    ar
39    20    25    1
40    20    21    1
41    21    22    1
42    21    47    1
43    21    48    1
44    22    23    1
45    22    49    1
46    22    50    1
47    23    24    1
48    24    25    1
49    24    51    1
50    24    52    1
51    25    53    1
52    25    54    1
53    27    28    ar
54    27    55    1
55    28    29    1
56    28    31    ar
57    29    30    1
58    30    56    1
59    30    57    1
60    30    58    1
61    31    32    1
62    32    59    1
@<TRIPOS>SUBSTRUCTURE
1   ZINC000006906035 1     RESIDUE    1   A     ZIN   1


@<TRIPOS>MOLECULE
ClC1=CC2=C(C=C1)C(NC(C)CCCN(CC)CC)=CC=N2
  49   50    0    0    0
SMALL
USER_CHARGES
NO_NAME
@<TRIPOS>ATOM
    1 C1        0.0823     1.4510    -0.2163 C.3    1 <0>      -0.1900
    2 C2        0.0237    -0.0664    -0.0289 C.3    1 <0>      -0.0200
    3 N3       -1.3740    -0.4850     0.1418 N.4    1 <0>      -0.3900
    4 H4       -1.7925     0.0392     0.8955 H      1 <0>       0.4200
    5 C5       -2.1159    -0.2330    -1.1009 C.3    1 <0>      -0.0200
    6 C6       -3.5996    -0.5332    -0.8788 C.3    1 <0>      -0.1900
    7 C7       -1.4206    -1.9189     0.4577 C.3    1 <0>      -0.0100
    8 C8       -0.7562    -2.1642     1.8139 C.3    1 <0>      -0.1500
    9 C9       -0.8047    -3.6576     2.1429 C.3    1 <0>      -0.1200
   10 C10      -0.1402    -3.9029     3.4991 C.3    1 <0>       0.1500
   11 H11      -0.6138    -3.2758     4.2544 H      1 <0>       0.0900
   12 C12      -0.2985    -5.3747     3.8858 C.3    1 <0>      -0.1800
   13 N13       1.2841    -3.5713     3.4121 N.pl3  1 <0>      -0.7300
   14 C14       1.9824    -3.2088     4.5537 C.ar   1 <0>       0.2700
   15 C15       3.3571    -2.8784     4.4943 C.ar   1 <0>      -0.1500
   16 C16       4.0620    -2.9050     3.2828 C.ar   1 <0>      -0.0800
   17 C17       5.3847    -2.5801     3.2656 C.ar   1 <0>      -0.1200
   18 C18       6.0470    -2.2214     4.4386 C.ar   1 <0>      -0.0100
   19 Cl19      7.7333    -1.8137     4.3776 Cl     1 <0>      -0.0500
   20 C20       5.3909    -2.1856     5.6322 C.ar   1 <0>      -0.0900
   21 C21       4.0257    -2.5142     5.6876 C.ar   1 <0>       0.1800
   22 N22       3.3573    -2.4867     6.8462 N.ar   1 <0>      -0.5100
   23 C23       2.0818    -2.7908     6.9136 C.ar   1 <0>       0.1800
   24 C24       1.3546    -3.1530     5.7885 C.ar   1 <0>      -0.2700
   25 H25       1.1228     1.7753    -0.2311 H      1 <0>       0.1100
   26 H26      -0.3953     1.7194    -1.1586 H      1 <0>       0.0800
   27 H27      -0.4388     1.9392     0.6072 H      1 <0>       0.0800
   28 H28       0.4455    -0.5574    -0.9059 H      1 <0>       0.1300
   29 H29       0.5971    -0.3457     0.8550 H      1 <0>       0.1300
   30 H30      -1.9958     0.8109    -1.3904 H      1 <0>       0.1300
   31 H31      -1.7294    -0.8761    -1.8915 H      1 <0>       0.1300
   32 H32      -3.7314    -1.6000    -0.6980 H      1 <0>       0.0800
   33 H33      -3.9590     0.0285    -0.0166 H      1 <0>       0.0800
   34 H34      -4.1656    -0.2421    -1.7637 H      1 <0>       0.1100
   35 H35      -2.4588    -2.2488     0.4968 H      1 <0>       0.1300
   36 H36      -0.8905    -2.4782    -0.3132 H      1 <0>       0.1300
   37 H37       0.2820    -1.8343     1.7748 H      1 <0>       0.0900
   38 H38      -1.2864    -1.6049     2.5847 H      1 <0>       0.0900
   39 H39      -1.8429    -3.9875     2.1820 H      1 <0>       0.0900
   40 H40      -0.2745    -4.2169     1.3721 H      1 <0>       0.0800
   41 H41       0.1749    -5.5495     4.8519 H      1 <0>       0.0700
   42 H42      -1.3582    -5.6215     3.9505 H      1 <0>       0.0700
   43 H43       0.1751    -6.0018     3.1304 H      1 <0>       0.0600
   44 H44       1.7386    -3.6053     2.5559 H      1 <0>       0.4000
   45 H45       3.5591    -3.1821     2.3681 H      1 <0>       0.1300
   46 H46       5.9270    -2.6009     2.3318 H      1 <0>       0.1400
   47 H47       5.9182    -1.9061     6.5323 H      1 <0>       0.1500
   48 H48       1.5836    -2.7546     7.8712 H      1 <0>       0.1600
   49 H49       0.3063    -3.3974     5.8756 H      1 <0>       0.1400
@<TRIPOS>BOND
   1    1    2 1
   2    1   25 1
   3    1   26 1
   4    1   27 1
   5    2    3 1
   6    2   28 1
   7    2   29 1
   8    3    4 1
   9    3    5 1
  10    3    7 1
  11    5    6 1
  12    5   30 1
  13    5   31 1
  14    6   32 1
  15    6   33 1
  16    6   34 1
  17    7    8 1
  18    7   35 1
  19    7   36 1
  20    8    9 1
  21    8   37 1
  22    8   38 1
  23    9   10 1
  24    9   39 1
  25    9   40 1
  26   10   11 1
  27   10   12 1
  28   10   13 1
  29   12   41 1
  30   12   42 1
  31   12   43 1
  32   13   14 1
  33   13   44 1
  34   14   24 ar
  35   14   15 ar
  36   15   21 ar
  37   15   16 ar
  38   16   17 ar
  39   16   45 1
  40   17   18 ar
  41   17   46 1
  42   18   19 1
  43   18   20 ar
  44   20   21 ar
  45   20   47 1
  46   21   22 ar
  47   22   23 ar
  48   23   24 ar
  49   23   48 1
  50   24   49 1


@<TRIPOS>MOLECULE
OC1=CC=C(C(C(O)=C(C2=CC(O)=C(O)C=C2)O3)=O)C3=C1
30    32    1     0     0
SMALL
USER_CHARGES
@<TRIPOS>ATOM
1      O1     -0.0004   -0.0017   -0.0958 O.2      1 ZINC000000039111   -0.5100
2      C2     -0.0158    1.2176   -0.0437 C.2      1 ZINC000000039111    0.4000
3      C3     -1.2838    1.9649    0.0349 C.ar     1 ZINC000000039111   -0.3500
4      C4     -2.5131    1.3051    0.0531 C.ar     1 ZINC000000039111    0.0100
5      C5     -3.6698    2.0282    0.1269 C.ar     1 ZINC000000039111   -0.2600
6      C6     -3.6282    3.4193    0.1836 C.ar     1 ZINC000000039111    0.3200
7      O7     -4.7858    4.1248    0.2562 O.3      1 ZINC000000039111   -0.6900
8      C8     -2.4158    4.0888    0.1669 C.ar     1 ZINC000000039111   -0.2900
9      C9     -1.2323    3.3686    0.0922 C.ar     1 ZINC000000039111    0.1900
10     O10    -0.0396    3.9988    0.0750 O.3      1 ZINC000000039111   -0.2100
11     C11     1.1247    3.3315    0.0038 C.2      1 ZINC000000039111    0.1200
12     C12     2.3832    4.0994   -0.0099 C.ar     1 ZINC000000039111   -0.0200
13     C13     2.5238    5.1986   -0.8611 C.ar     1 ZINC000000039111   -0.0800
14     C14     3.7015    5.9153   -0.8724 C.ar     1 ZINC000000039111   -0.1300
15     C15     4.7491    5.5480   -0.0400 C.ar     1 ZINC000000039111    0.0900
16     O16     5.9076    6.2578   -0.0551 O.3      1 ZINC000000039111   -0.4900
17     C17     4.6158    4.4527    0.8122 C.ar     1 ZINC000000039111    0.0800
18     O18     5.6446    4.0960    1.6269 O.3      1 ZINC000000039111   -0.4900
19     C19     3.4370    3.7330    0.8329 C.ar     1 ZINC000000039111   -0.0800
20     C20     1.1856    1.9705   -0.0503 C.2      1 ZINC000000039111   -0.0500
21     O21     2.3896    1.3402   -0.1213 O.3      1 ZINC000000039111   -0.4600
22     H22    -2.5500    0.2266    0.0086 H        1 ZINC000000039111    0.1200
23     H23    -4.6218    1.5184    0.1411 H        1 ZINC000000039111    0.1100
24     H24    -2.3918    5.1677    0.2111 H        1 ZINC000000039111    0.1200
25     H25     1.7101    5.4865   -1.5103 H        1 ZINC000000039111    0.1400
26     H26     3.8091    6.7645   -1.5310 H        1 ZINC000000039111    0.1400
27     H27     5.9265    6.9932    0.5725 H        1 ZINC000000039111    0.3900
28     H28     5.6256    4.5229    2.4943 H        1 ZINC000000039111    0.3900
29     H29     3.3325    2.8843    1.4926 H        1 ZINC000000039111    0.1400
30     H30     2.3273    0.3758   -0.1555 H        1 ZINC000000039111    0.4000
@<TRIPOS>BOND
1     1     2     2
2     2     20    1
3     2     3     1
4     3     9     ar
5     3     4     ar
6     4     5     ar
7     4     22    1
8     5     6     ar
9     5     23    1
10    6     7     1
11    6     8     ar
12    8     9     ar
13    8     24    1
14    9     10    1
15    10    11    1
16    11    12    1
17    11    20    2
18    12    19    ar
19    12    13    ar
20    13    14    ar
21    13    25    1
22    14    15    ar
23    14    26    1
24    15    16    1
25    15    17    ar
26    16    27    1
27    17    18    1
28    17    19    ar
29    18    28    1
30    19    29    1
31    20    21    1
32    21    30    1
@<TRIPOS>SUBSTRUCTURE
1   ZINC000000039111 1     RESIDUE    1   A     ZIN   1


@<TRIPOS>MOLECULE
OC1=CC(O)=C(C(C(O)=C(C2=CC(O)=C(O)C(O)=C2)O3)=O)C3=C1
32    34    1     0     0
SMALL
USER_CHARGES
@<TRIPOS>ATOM
1      O1     -0.8966    1.1509   -0.0627 O.2      1 ZINC000003874317   -0.5300
2      C2     -0.5657    2.3260   -0.0198 C.2      1 ZINC000003874317    0.4200
3      C3     -1.5284    3.3442    0.0373 C.2      1 ZINC000003874317   -0.4900
4      C4     -1.1437    4.6666    0.0803 C.2      1 ZINC000003874317    0.3200
5      O5     -2.1013    5.6231    0.1437 O.3      1 ZINC000003874317   -0.6800
6      C6      0.2005    5.0584    0.0615 C.2      1 ZINC000003874317   -0.1400
7      C7      1.2033    4.1384    0.0028 C.2      1 ZINC000003874317    0.1000
8      O8      2.4970    4.5344   -0.0412 O.3      1 ZINC000003874317   -0.2900
9      C9      3.4781    3.6588    0.5261 C.3      1 ZINC000003874317    0.1100
10     C10     3.3163    3.6169    2.0238 C.ar     1 ZINC000003874317   -0.1000
11     C11     4.2968    3.0372    2.8070 C.ar     1 ZINC000003874317   -0.1300
12     C12     4.1519    2.9970    4.1855 C.ar     1 ZINC000003874317    0.0900
13     O13     5.1173    2.4268    4.9552 O.3      1 ZINC000003874317   -0.4800
14     C14     3.0191    3.5406    4.7794 C.ar     1 ZINC000003874317    0.0600
15     O15     2.8735    3.5035    6.1321 O.3      1 ZINC000003874317   -0.4700
16     C16     2.0357    4.1225    3.9884 C.ar     1 ZINC000003874317    0.1100
17     O17     0.9256    4.6562    4.5649 O.3      1 ZINC000003874317   -0.4700
18     C18     2.1906    4.1633    2.6110 C.ar     1 ZINC000003874317   -0.1200
19     C19     3.2675    2.2721   -0.0498 C.2      1 ZINC000003874317    0.3500
20     O20     4.1869    1.6157   -0.4780 O.2      1 ZINC000003874317   -0.4200
21     C21     1.8642    1.7590   -0.0600 C.2      1 ZINC000003874317    0.0800
22     O22     1.5912    0.4407   -0.1002 O.3      1 ZINC000003874317   -0.4100
23     C23     0.8571    2.7131   -0.0203 C.2      1 ZINC000003874317   -0.1600
24     H24    -2.5780    3.0902    0.0472 H        1 ZINC000003874317    0.1100
25     H25     0.4468    6.1094    0.0936 H        1 ZINC000003874317    0.1300
26     H26     4.4773    4.0141    0.2742 H        1 ZINC000003874317    0.1600
27     H27     5.1766    2.6147    2.3446 H        1 ZINC000003874317    0.1400
28     H28     5.8051    3.0424    5.2435 H        1 ZINC000003874317    0.3900
29     H29     3.2402    4.2732    6.5884 H        1 ZINC000003874317    0.3800
30     H30     1.0136    5.5908    4.7971 H        1 ZINC000003874317    0.3900
31     H31     1.4270    4.6157    1.9957 H        1 ZINC000003874317    0.1600
32     H32     2.3460   -0.1634   -0.1223 H        1 ZINC000003874317    0.4000
@<TRIPOS>BOND
1     1     2     2
2     2     23    1
3     2     3     1
4     3     4     2
5     3     24    1
6     4     5     1
7     4     6     1
8     6     7     2
9     6     25    1
10    7     23    1
11    7     8     1
12    8     9     1
13    9     10    1
14    9     19    1
15    9     26    1
16    10    18    ar
17    10    11    ar
18    11    12    ar
19    11    27    1
20    12    13    1
21    12    14    ar
22    13    28    1
23    14    15    1
24    14    16    ar
25    15    29    1
26    16    17    1
27    16    18    ar
28    17    30    1
29    18    31    1
30    19    20    2
31    19    21    1
32    21    22    1
33    21    23    2
34    22    32    1
@<TRIPOS>SUBSTRUCTURE
1   ZINC000003874317 1     RESIDUE    1   A     ZIN   1


@<TRIPOS>MOLECULE
OC1=CC(O)=C(C(C(O)=C(C2=CC=C(O)C=C2)O3)=O)C3=C1
30    32    1     0     0
SMALL
USER_CHARGES
@<TRIPOS>ATOM
1      O1     -0.9048    1.1655   -0.0632 O.2      1 ZINC000003869768   -0.5400
2      C2     -0.5701    2.3395   -0.0199 C.2      1 ZINC000003869768    0.4200
3      C3     -1.5294    3.3609    0.0376 C.2      1 ZINC000003869768   -0.4900
4      C4     -1.1404    4.6820    0.0811 C.2      1 ZINC000003869768    0.3200
5      O5     -2.0949    5.6416    0.1450 O.3      1 ZINC000003869768   -0.6800
6      C6      0.2051    5.0693    0.0623 C.2      1 ZINC000003869768   -0.1500
7      C7      1.2048    4.1461    0.0032 C.2      1 ZINC000003869768    0.1000
8      O8      2.4999    4.5378   -0.0408 O.3      1 ZINC000003869768   -0.2900
9      C9      3.4781    3.6588    0.5261 C.3      1 ZINC000003869768    0.1100
10     C10     3.3163    3.6169    2.0238 C.ar     1 ZINC000003869768   -0.1400
11     C11     4.2966    3.0372    2.8079 C.ar     1 ZINC000003869768   -0.0900
12     C12     4.1507    2.9975    4.1810 C.ar     1 ZINC000003869768   -0.1500
13     C13     3.0196    3.5403    4.7732 C.ar     1 ZINC000003869768    0.1100
14     O14     2.8739    3.5029    6.1238 O.3      1 ZINC000003869768   -0.5000
15     C15     2.0377    4.1218    3.9843 C.ar     1 ZINC000003869768   -0.1400
16     C16     2.1906    4.1633    2.6119 C.ar     1 ZINC000003869768   -0.0800
17     C17     3.2629    2.2730   -0.0503 C.2      1 ZINC000003869768    0.3500
18     O18     4.1801    1.6138   -0.4788 O.2      1 ZINC000003869768   -0.4200
19     C19     1.8579    1.7646   -0.0606 C.2      1 ZINC000003869768    0.0800
20     O20     1.5806    0.4472   -0.1012 O.3      1 ZINC000003869768   -0.4100
21     C21     0.8539    2.7219   -0.0203 C.2      1 ZINC000003869768   -0.1600
22     H22    -2.5799    3.1103    0.0475 H        1 ZINC000003869768    0.1100
23     H23     0.4548    6.1196    0.0948 H        1 ZINC000003869768    0.1300
24     H24     4.4784    4.0109    0.2743 H        1 ZINC000003869768    0.1500
25     H25     5.1769    2.6148    2.3464 H        1 ZINC000003869768    0.1300
26     H26     4.9163    2.5440    4.7930 H        1 ZINC000003869768    0.1300
27     H27     3.2407    4.2724    6.5804 H        1 ZINC000003869768    0.3900
28     H28     1.1561    4.5448    4.4429 H        1 ZINC000003869768    0.1400
29     H29     1.4266    4.6161    1.9974 H        1 ZINC000003869768    0.1500
30     H30     2.3333   -0.1594   -0.1235 H        1 ZINC000003869768    0.4000
@<TRIPOS>BOND
1     1     2     2
2     2     21    1
3     2     3     1
4     3     4     2
5     3     22    1
6     4     5     1
7     4     6     1
8     6     7     2
9     6     23    1
10    7     21    1
11    7     8     1
12    8     9     1
13    9     10    1
14    9     17    1
15    9     24    1
16    10    16    ar
17    10    11    ar
18    11    12    ar
19    11    25    1
20    12    13    ar
21    12    26    1
22    13    14    1
23    13    15    ar
24    14    27    1
25    15    16    ar
26    15    28    1
27    16    29    1
28    17    18    2
29    17    19    1
30    19    20    1
31    19    21    2
32    20    30    1
@<TRIPOS>SUBSTRUCTURE
1   ZINC000003869768 1     RESIDUE    1   A     ZIN   1


@<TRIPOS>MOLECULE
NC1=NC(N2C(NC3=NNC=C3)=NC4=C2C=CC=C4)=NC(C)=N1
36    39    1     0     0
SMALL
USER_CHARGES
@<TRIPOS>ATOM
1      C1     -0.0184    1.5028    0.0103 C.3      1 ZINC000064744190   -0.0900
2      C2      0.0021   -0.0041    0.0020 C.ar     1 ZINC000064744190    0.4400
3      N3      0.0056   -0.6567   -1.1467 N.ar     1 ZINC000064744190   -0.6100
4      C4      0.0241   -1.9876   -1.1572 C.ar     1 ZINC000064744190    0.6300
5      N5      0.0282   -2.6692   -2.3571 N.pl3    1 ZINC000064744190   -0.7900
6      N6      0.0390   -2.6589   -0.0106 N.ar     1 ZINC000064744190   -0.6200
7      C7      0.0354   -1.9990    1.1411 C.ar     1 ZINC000064744190    0.6300
8      N8      0.0509   -2.6967    2.3418 N.pl3    1 ZINC000064744190   -0.4400
9      C9      0.0765   -4.0764    2.4936 C.ar     1 ZINC000064744190    0.0400
10     C10     0.0935   -5.1401    1.6060 C.ar     1 ZINC000064744190   -0.0800
11     C11     0.1184   -6.4346    2.0850 C.ar     1 ZINC000064744190   -0.1200
12     C12     0.1265   -6.6779    3.4499 C.ar     1 ZINC000064744190   -0.1100
13     C13     0.1099   -5.6321    4.3463 C.ar     1 ZINC000064744190   -0.0800
14     C14     0.0846   -4.3168    3.8775 C.ar     1 ZINC000064744190    0.0900
15     N15     0.0638   -3.1062    4.4960 N.2      1 ZINC000064744190   -0.5100
16     C16     0.0499   -2.1522    3.5997 C.2      1 ZINC000064744190    0.5800
17     N17     0.0281   -0.8019    3.8793 N.pl3    1 ZINC000064744190   -0.5900
18     C18     0.0188   -0.3621    5.2091 C.2      1 ZINC000064744190    0.3200
19     N19    -0.0074    0.8881    5.6075 N.2      1 ZINC000064744190   -0.3200
20     N20    -0.0086    0.9002    7.0082 N.pl3    1 ZINC000064744190   -0.4700
21     C21     0.0175   -0.3791    7.4376 C.2      1 ZINC000064744190    0.0700
22     C22     0.0296   -1.1818    6.3493 C.2      1 ZINC000064744190   -0.2700
23     N23     0.0220   -0.6695    1.1441 N.ar     1 ZINC000064744190   -0.6300
24     H24     1.0042    1.8801    0.0026 H        1 ZINC000064744190    0.1000
25     H25    -0.5455    1.8639   -0.8728 H        1 ZINC000064744190    0.1000
26     H26    -0.5286    1.8543    0.9071 H        1 ZINC000064744190    0.1000
27     H27     0.0176   -2.1784   -3.1937 H        1 ZINC000064744190    0.4200
28     H28     0.0417   -3.6391   -2.3639 H        1 ZINC000064744190    0.4200
29     H29     0.0869   -4.9569    0.5417 H        1 ZINC000064744190    0.1400
30     H30     0.1313   -7.2630    1.3922 H        1 ZINC000064744190    0.1300
31     H31     0.1457   -7.6948    3.8129 H        1 ZINC000064744190    0.1300
32     H32     0.1160   -5.8287    5.4083 H        1 ZINC000064744190    0.1400
33     H33     0.0193   -0.1568    3.1550 H        1 ZINC000064744190    0.4400
34     H34    -0.0251    1.6900    7.5711 H        1 ZINC000064744190    0.4400
35     H35     0.0241   -0.7041    8.4675 H        1 ZINC000064744190    0.1800
36     H36     0.0503   -2.2616    6.3558 H        1 ZINC000064744190    0.1800
@<TRIPOS>BOND
1     1     2     1
2     1     24    1
3     1     25    1
4     1     26    1
5     2     23    ar
6     2     3     ar
7     3     4     ar
8     4     5     1
9     4     6     ar
10    5     27    1
11    5     28    1
12    6     7     ar
13    7     8     1
14    7     23    ar
15    8     16    1
16    8     9     1
17    9     14    ar
18    9     10    ar
19    10    11    ar
20    10    29    1
21    11    12    ar
22    11    30    1
23    12    13    ar
24    12    31    1
25    13    14    ar
26    13    32    1
27    14    15    1
28    15    16    2
29    16    17    1
30    17    18    1
31    17    33    1
32    18    22    1
33    18    19    2
34    19    20    1
35    20    21    1
36    20    34    1
37    21    22    2
38    21    35    1
39    22    36    1
@<TRIPOS>SUBSTRUCTURE
1   ZINC000064744190 1     RESIDUE    1   A     ZIN   1


@<TRIPOS>MOLECULE
NC1=NC(C2=C(NC3=NNC=C3)N=C4N2C=CC=C4)=NC(C)=N1
  36   39    0    0    0
SMALL
USER_CHARGES
NO_NAME
@<TRIPOS>ATOM
    1 C1       -0.0184     1.5028     0.0103 C.3    1 <0>      -0.0900
    2 C2        0.0021    -0.0041     0.0020 C.ar   1 <0>       0.4200
    3 N3        0.0055    -0.6564    -1.1483 N.ar   1 <0>      -0.6200
    4 C4        0.0235    -1.9883    -1.1641 C.ar   1 <0>       0.6100
    5 N5        0.0275    -2.6643    -2.3675 N.pl3  1 <0>      -0.8000
    6 N6        0.0381    -2.6649    -0.0228 N.ar   1 <0>      -0.6300
    7 C7        0.0346    -2.0053     1.1389 C.ar   1 <0>       0.5000
    8 C8        0.0511    -2.7446     2.4046 C.2    1 <0>      -0.1200
    9 C9        0.0438    -2.2038     3.6847 C.2    1 <0>       0.4300
   10 N10       0.0192    -0.8484     3.9996 N.pl3  1 <0>      -0.5900
   11 C11       0.0144    -0.4409     5.3390 C.2    1 <0>       0.3100
   12 N12      -0.0135     0.7994     5.7675 N.2    1 <0>      -0.3300
   13 N13      -0.0083     0.7777     7.1681 N.pl3  1 <0>      -0.4700
   14 C14       0.0235    -0.5114     7.5665 C.2    1 <0>       0.0700
   15 C15       0.0326    -1.2878     6.4592 C.2    1 <0>      -0.2700
   16 N16       0.0639    -3.2091     4.5570 N.2    1 <0>      -0.5200
   17 C17       0.0838    -4.3692     3.9058 C.2    1 <0>       0.2900
   18 C18       0.1090    -5.6999     4.3635 C.2    1 <0>      -0.1000
   19 C19       0.1259    -6.7181     3.4586 C.2    1 <0>      -0.0700
   20 C20       0.1180    -6.4271     2.0868 C.2    1 <0>      -0.1600
   21 C21       0.0941    -5.1428     1.6651 C.2    1 <0>       0.0900
   22 N22       0.0710    -4.1188     2.5614 N.pl3  1 <0>      -0.3300
   23 N23       0.0219    -0.6676     1.1429 N.ar   1 <0>      -0.6100
   24 H24       1.0042     1.8801     0.0026 H      1 <0>       0.1000
   25 H25      -0.5455     1.8639    -0.8728 H      1 <0>       0.0900
   26 H26      -0.5286     1.8543     0.9071 H      1 <0>       0.0900
   27 H27       0.0172    -2.1696    -3.2018 H      1 <0>       0.4200
   28 H28       0.0406    -3.6342    -2.3789 H      1 <0>       0.4200
   29 H29       0.0054    -0.1860     3.2910 H      1 <0>       0.4400
   30 H30      -0.0247     1.5536     7.7500 H      1 <0>       0.4400
   31 H31       0.0355    -0.8611     8.5882 H      1 <0>       0.1800
   32 H32       0.0566    -2.3673     6.4397 H      1 <0>       0.1800
   33 H33       0.1153    -5.9119     5.4225 H      1 <0>       0.1600
   34 H34       0.1457    -7.7439     3.7959 H      1 <0>       0.1500
   35 H35       0.1313    -7.2308     1.3654 H      1 <0>       0.1600
   36 H36       0.0888    -4.9274     0.6068 H      1 <0>       0.1800
@<TRIPOS>BOND
   1    1    2 1
   2    1   24 1
   3    1   25 1
   4    1   26 1
   5    2   23 ar
   6    2    3 ar
   7    3    4 ar
   8    4    5 1
   9    4    6 ar
  10    5   27 1
  11    5   28 1
  12    6    7 ar
  13    7    8 1
  14    7   23 ar
  15    8   22 1
  16    8    9 2
  17    9   10 1
  18    9   16 1
  19   10   11 1
  20   10   29 1
  21   11   15 1
  22   11   12 2
  23   12   13 1
  24   13   14 1
  25   13   30 1
  26   14   15 2
  27   14   31 1
  28   15   32 1
  29   16   17 2
  30   17   22 1
  31   17   18 1
  32   18   19 2
  33   18   33 1
  34   19   20 1
  35   19   34 1
  36   20   21 2
  37   20   35 1
  38   21   22 1
  39   21   36 1


@<TRIPOS>MOLECULE
NC(NC(N(C)C)=N)=N
  22   21    0    0    0
SMALL
USER_CHARGES
NO_NAME
@<TRIPOS>ATOM
    1 C1       -3.4890    -0.5102    -1.6399 C.3    1 <0>       0.0400
    2 N2       -2.3670    -1.3742    -1.2646 N.pl3  1 <0>      -0.5300
    3 C3       -2.2679    -1.8940     0.1015 C.3    1 <0>       0.0400
    4 C4       -1.4074    -1.6971    -2.1941 C.cat  1 <0>       0.7200
    5 N5       -1.4955    -1.2351    -3.4084 N.pl3  1 <0>      -0.7600
    6 H6       -0.8989    -1.5662    -4.0978 H      1 <0>       0.4400
    7 H7       -2.1578    -0.5598    -3.6235 H      1 <0>       0.4600
    8 N8       -0.3502    -2.5112    -1.8404 N.pl3  1 <0>      -0.6400
    9 C9        0.7705    -2.5639    -2.6320 C.cat  1 <0>       0.7800
   10 N10       0.9045    -1.7202    -3.6529 N.pl3  1 <0>      -0.8300
   11 N11       1.7230    -3.4585    -2.3785 N.pl3  1 <0>      -0.7100
   12 H12       2.5147    -3.4957    -2.9377 H      1 <0>       0.4700
   13 H13       1.6253    -4.0733    -1.6346 H      1 <0>       0.4600
   14 H14      -3.2226     0.5309    -1.4579 H      1 <0>       0.1100
   15 H15      -3.7157    -0.6478    -2.6972 H      1 <0>       0.1000
   16 H16      -4.3636    -0.7710    -1.0440 H      1 <0>       0.1300
   17 H17      -2.7880    -2.8498     0.1652 H      1 <0>       0.1100
   18 H18      -1.2187    -2.0332     0.3620 H      1 <0>       0.0900
   19 H19      -2.7233    -1.1857     0.7937 H      1 <0>       0.1300
   20 H20      -0.3990    -3.0460    -1.0326 H      1 <0>       0.4700
   21 H21       0.6937    -0.7806    -3.5364 H      1 <0>       0.4500
   22 H22       1.2130    -2.0451    -4.5132 H      1 <0>       0.4600
@<TRIPOS>BOND
   1    1    2 1
   2    1   14 1
   3    1   15 1
   4    1   16 1
   5    2    3 1
   6    2    4 ar
   7    3   17 1
   8    3   18 1
   9    3   19 1
  10    4    5 ar
  11    4    8 ar
  12    5    6 1
  13    5    7 1
  14    8    9 ar
  15    8   20 1
  16    9   10 ar
  17    9   11 ar
  18   10   21 1
  19   10   22 1
  20   11   12 1
  21   11   13 1


@<TRIPOS>MOLECULE
CCN(CC)CCCC(C)NC1=C2C=CC(=CC2=NC=C1)Cl
  49   50    0    0    0
SMALL
USER_CHARGES
NO_NAME
@<TRIPOS>ATOM
    1 C1        0.0823     1.4510    -0.2163 C.3    1 <0>      -0.1900
    2 C2        0.0237    -0.0664    -0.0289 C.3    1 <0>      -0.0200
    3 N3       -1.3740    -0.4850     0.1418 N.4    1 <0>      -0.3900
    4 H4       -1.7925     0.0392     0.8955 H      1 <0>       0.4200
    5 C5       -2.1159    -0.2330    -1.1009 C.3    1 <0>      -0.0200
    6 C6       -3.5996    -0.5332    -0.8788 C.3    1 <0>      -0.1900
    7 C7       -1.4206    -1.9189     0.4577 C.3    1 <0>      -0.0100
    8 C8       -0.7562    -2.1642     1.8139 C.3    1 <0>      -0.1500
    9 C9       -0.8047    -3.6576     2.1429 C.3    1 <0>      -0.1200
   10 C10      -0.1402    -3.9029     3.4991 C.3    1 <0>       0.1500
   11 H11      -0.6138    -3.2758     4.2544 H      1 <0>       0.0900
   12 C12      -0.2985    -5.3747     3.8858 C.3    1 <0>      -0.1800
   13 N13       1.2841    -3.5713     3.4121 N.pl3  1 <0>      -0.7300
   14 C14       1.9824    -3.2088     4.5537 C.ar   1 <0>       0.2700
   15 C15       3.3571    -2.8784     4.4943 C.ar   1 <0>      -0.1500
   16 C16       4.0620    -2.9050     3.2828 C.ar   1 <0>      -0.0800
   17 C17       5.3847    -2.5801     3.2656 C.ar   1 <0>      -0.1200
   18 C18       6.0470    -2.2214     4.4386 C.ar   1 <0>      -0.0100
   19 Cl19      7.7333    -1.8137     4.3776 Cl     1 <0>      -0.0500
   20 C20       5.3909    -2.1856     5.6322 C.ar   1 <0>      -0.0900
   21 C21       4.0257    -2.5142     5.6876 C.ar   1 <0>       0.1800
   22 N22       3.3573    -2.4867     6.8462 N.ar   1 <0>      -0.5100
   23 C23       2.0818    -2.7908     6.9136 C.ar   1 <0>       0.1800
   24 C24       1.3546    -3.1530     5.7885 C.ar   1 <0>      -0.2700
   25 H25       1.1228     1.7753    -0.2311 H      1 <0>       0.1100
   26 H26      -0.3953     1.7194    -1.1586 H      1 <0>       0.0800
   27 H27      -0.4388     1.9392     0.6072 H      1 <0>       0.0800
   28 H28       0.4455    -0.5574    -0.9059 H      1 <0>       0.1300
   29 H29       0.5971    -0.3457     0.8550 H      1 <0>       0.1300
   30 H30      -1.9958     0.8109    -1.3904 H      1 <0>       0.1300
   31 H31      -1.7294    -0.8761    -1.8915 H      1 <0>       0.1300
   32 H32      -3.7314    -1.6000    -0.6980 H      1 <0>       0.0800
   33 H33      -3.9590     0.0285    -0.0166 H      1 <0>       0.0800
   34 H34      -4.1656    -0.2421    -1.7637 H      1 <0>       0.1100
   35 H35      -2.4588    -2.2488     0.4968 H      1 <0>       0.1300
   36 H36      -0.8905    -2.4782    -0.3132 H      1 <0>       0.1300
   37 H37       0.2820    -1.8343     1.7748 H      1 <0>       0.0900
   38 H38      -1.2864    -1.6049     2.5847 H      1 <0>       0.0900
   39 H39      -1.8429    -3.9875     2.1820 H      1 <0>       0.0900
   40 H40      -0.2745    -4.2169     1.3721 H      1 <0>       0.0800
   41 H41       0.1749    -5.5495     4.8519 H      1 <0>       0.0700
   42 H42      -1.3582    -5.6215     3.9505 H      1 <0>       0.0700
   43 H43       0.1751    -6.0018     3.1304 H      1 <0>       0.0600
   44 H44       1.7386    -3.6053     2.5559 H      1 <0>       0.4000
   45 H45       3.5591    -3.1821     2.3681 H      1 <0>       0.1300
   46 H46       5.9270    -2.6009     2.3318 H      1 <0>       0.1400
   47 H47       5.9182    -1.9061     6.5323 H      1 <0>       0.1500
   48 H48       1.5836    -2.7546     7.8712 H      1 <0>       0.1600
   49 H49       0.3063    -3.3974     5.8756 H      1 <0>       0.1400
@<TRIPOS>BOND
   1    1    2 1
   2    1   25 1
   3    1   26 1
   4    1   27 1
   5    2    3 1
   6    2   28 1
   7    2   29 1
   8    3    4 1
   9    3    5 1
  10    3    7 1
  11    5    6 1
  12    5   30 1
  13    5   31 1
  14    6   32 1
  15    6   33 1
  16    6   34 1
  17    7    8 1
  18    7   35 1
  19    7   36 1
  20    8    9 1
  21    8   37 1
  22    8   38 1
  23    9   10 1
  24    9   39 1
  25    9   40 1
  26   10   11 1
  27   10   12 1
  28   10   13 1
  29   12   41 1
  30   12   42 1
  31   12   43 1
  32   13   14 1
  33   13   44 1
  34   14   24 ar
  35   14   15 ar
  36   15   21 ar
  37   15   16 ar
  38   16   17 ar
  39   16   45 1
  40   17   18 ar
  41   17   46 1
  42   18   19 1
  43   18   20 ar
  44   20   21 ar
  45   20   47 1
  46   21   22 ar
  47   22   23 ar
  48   23   24 ar
  49   23   48 1
  50   24   49 1


@<TRIPOS>MOLECULE
C1=CC=C2C(=C1)C=CC3=C2C=CC(=C3)C4=CC(=NN4C5=CC=C(C=C5)NC(=O)CN)C(F)(F)F
  54   58    0    0    0
SMALL
NO_CHARGES
@<TRIPOS>ATOM
   1 N1            -3.4856     0.5141     1.8484 N.4     
   2 H2            -4.0827     0.6342     2.6528 H       
   3 H3            -3.2658    -0.4642     1.7356 H       
   4 H4            -3.9607     0.8493     1.0238 H       
   5 C5            -2.2444     1.2757     2.0419 C.3     
   6 C6            -1.5347     0.7751     3.2735 C.2     
   7 O7            -2.0156    -0.1273     3.9258 O.2     
   8 N8            -0.3657     1.3302     3.6500 N.am    
   9 C9             0.2466     0.9304     4.8439 C.ar    
  10 C10            0.1622    -0.3925     5.2586 C.ar    
  11 C11            0.7658    -0.7865     6.4356 C.ar    
  12 C12            1.4571     0.1399     7.2055 C.ar    
  13 N13            2.0697    -0.2602     8.4010 N.pl3   
  14 N14            2.8563    -1.4047     8.5838 N.2     
  15 C15            3.2532    -1.4419     9.8313 C.2     
  16 C16            4.1206    -2.5099    10.4462 C.3     
  17 F17            4.5353    -3.4032     9.4526 F       
  18 F18            5.2414    -1.9171    11.0376 F       
  19 F19            3.3905    -3.2007    11.4192 F       
  20 C20            2.7398    -0.3283    10.4960 C.2     
  21 C21            2.0119     0.3987     9.5957 C.2     
  22 C22            1.2889     1.6599     9.8673 C.ar    
  23 C23            0.1834     2.0124     9.0803 C.ar    
  24 C24           -0.4950     3.1706     9.3158 C.ar    
  25 C25           -0.0919     4.0202    10.3492 C.ar    
  26 C26            1.0212     3.6791    11.1523 C.ar    
  27 C27            1.7055     2.4841    10.9031 C.ar    
  28 C28            1.4273     4.5423    12.1979 C.ar    
  29 C29            0.7747     5.6939    12.4524 C.ar    
  30 C30           -0.3454     6.0915    11.6855 C.ar    
  31 C31           -1.0164     7.2915    11.9583 C.ar    
  32 C32           -2.0941     7.6517    11.2029 C.ar    
  33 C33           -2.5387     6.8442    10.1631 C.ar    
  34 C34           -1.9066     5.6686     9.8723 C.ar    
  35 C35           -0.8007     5.2729    10.6270 C.ar    
  36 C36            1.5419     1.4626     6.7906 C.ar    
  37 C37            0.9432     1.8555     5.6108 C.ar    
  38 H38           -1.5993     1.1460     1.1729 H       
  39 H39           -2.4818     2.3326     2.1636 H       
  40 H40            0.0515     2.0066     3.0938 H       
  41 H41           -0.3760    -1.1127     4.6603 H       
  42 H42            0.7002    -1.8151     6.7581 H       
  43 H43            2.8934    -0.0819    11.5363 H       
  44 H44           -0.1332     1.3602     8.2798 H       
  45 H45           -1.3450     3.4321     8.7030 H       
  46 H46            2.5572     2.2091    11.5076 H       
  47 H47            2.2783     4.2721    12.8054 H       
  48 H48            1.1142     6.3265    13.2593 H       
  49 H49           -0.6818     7.9285    12.7637 H       
  50 H50           -2.6088     8.5768    11.4164 H       
  51 H51           -3.3939     7.1494     9.5784 H       
  52 H52           -2.2609     5.0481     9.0624 H       
  53 H53            2.0798     2.1829     7.3892 H       
  54 H54            1.0091     2.8841     5.2882 H       
@<TRIPOS>BOND
   1    1    2 1
   2    1    3 1
   3    1    4 1
   4    1    5 1
   5    5    6 1
   6    5   38 1
   7    5   39 1
   8    6    7 2
   9    6    8 am
  10    8    9 1
  11    8   40 1
  12    9   37 ar
  13    9   10 ar
  14   10   11 ar
  15   10   41 1
  16   11   12 ar
  17   11   42 1
  18   12   13 1
  19   12   36 ar
  20   13   21 1
  21   13   14 1
  22   14   15 2
  23   15   16 1
  24   15   20 1
  25   16   17 1
  26   16   18 1
  27   16   19 1
  28   20   21 2
  29   20   43 1
  30   21   22 1
  31   22   27 ar
  32   22   23 ar
  33   23   24 ar
  34   23   44 1
  35   24   25 ar
  36   24   45 1
  37   25   35 ar
  38   25   26 ar
  39   26   27 ar
  40   26   28 ar
  41   27   46 1
  42   28   29 ar
  43   28   47 1
  44   29   30 ar
  45   29   48 1
  46   30   35 ar
  47   30   31 ar
  48   31   32 ar
  49   31   49 1
  50   32   33 ar
  51   32   50 1
  52   33   34 ar
  53   33   51 1
  54   34   35 ar
  55   34   52 1
  56   36   37 ar
  57   36   53 1
  58   37   54 1


@<TRIPOS>MOLECULE
C1C(C(=O)OC1COC2=CC=CC=C2[N+](=O)[O-])CC3=CC=CC=C3
41    43    1     0     0
SMALL
USER_CHARGES
@<TRIPOS>ATOM
1      O1      0.0021   -0.0041    0.0020 O.2      1 ZINC000028890319   -0.4300
2      C2     -0.0143    1.2041    0.0087 C.2      1 ZINC000028890319    0.4700
3      O3     -1.1215    1.9598    0.0291 O.3      1 ZINC000028890319   -0.3200
4      C4     -0.8019    3.2956    0.5191 C.3      1 ZINC000028890319    0.0900
5      H5     -1.4627    4.0351    0.0670 H        1 ZINC000028890319    0.1400
6      C6     -0.9105    3.3454    2.0445 C.3      1 ZINC000028890319    0.0300
7      O7     -2.2737    3.1606    2.4312 O.3      1 ZINC000028890319   -0.2700
8      C8     -2.5450    3.1780    3.7628 C.ar     1 ZINC000028890319    0.2000
9      C9     -1.5213    3.3746    4.6778 C.ar     1 ZINC000028890319   -0.2200
10     C10    -1.7998    3.3923    6.0310 C.ar     1 ZINC000028890319   -0.0300
11     C11    -3.0975    3.2143    6.4732 C.ar     1 ZINC000028890319   -0.1500
12     C12    -4.1198    3.0177    5.5629 C.ar     1 ZINC000028890319   -0.0200
13     C13    -3.8474    3.0048    4.2089 C.ar     1 ZINC000028890319   -0.0800
14     N14    -4.9421    2.7949    3.2352 N.pl3    1 ZINC000028890319    0.0300
15     O15    -6.0837    2.6333    3.6278 O.2      1 ZINC000028890319   -0.1800
16     O16    -4.7013    2.7837    2.0413 O.2      1 ZINC000028890319   -0.1300
17     C17     0.6586    3.5314    0.0713 C.3      1 ZINC000028890319   -0.1400
18     C18     1.2119    2.0908    0.0017 C.3      1 ZINC000028890319   -0.1500
19     H19     1.8414    1.8840    0.8672 H        1 ZINC000028890319    0.1200
20     C20     2.0028    1.8861   -1.2919 C.3      1 ZINC000028890319   -0.0600
21     C21     2.6350    0.5181   -1.2830 C.ar     1 ZINC000028890319   -0.1000
22     C22     3.8981    0.3439   -0.7492 C.ar     1 ZINC000028890319   -0.1100
23     C23     4.4780   -0.9109   -0.7411 C.ar     1 ZINC000028890319   -0.1200
24     C24     3.7945   -1.9916   -1.2662 C.ar     1 ZINC000028890319   -0.1200
25     C25     2.5309   -1.8176   -1.7992 C.ar     1 ZINC000028890319   -0.1200
26     C26     1.9493   -0.5635   -1.8035 C.ar     1 ZINC000028890319   -0.0900
27     H27    -0.2993    2.5539    2.4782 H        1 ZINC000028890319    0.0800
28     H28    -0.5592    4.3132    2.4024 H        1 ZINC000028890319    0.1000
29     H29    -0.5073    3.5133    4.3329 H        1 ZINC000028890319    0.1500
30     H30    -1.0030    3.5450    6.7440 H        1 ZINC000028890319    0.1500
31     H31    -3.3131    3.2284    7.5314 H        1 ZINC000028890319    0.1500
32     H32    -5.1327    2.8785    5.9109 H        1 ZINC000028890319    0.1600
33     H33     0.6922    4.0124   -0.9062 H        1 ZINC000028890319    0.1100
34     H34     1.2022    4.1173    0.8124 H        1 ZINC000028890319    0.1000
35     H35     1.3307    1.9702   -2.1459 H        1 ZINC000028890319    0.0800
36     H36     2.7812    2.6455   -1.3660 H        1 ZINC000028890319    0.0900
37     H37     4.4322    1.1882   -0.3389 H        1 ZINC000028890319    0.1200
38     H38     5.4652   -1.0469   -0.3247 H        1 ZINC000028890319    0.1200
39     H39     4.2478   -2.9719   -1.2605 H        1 ZINC000028890319    0.1200
40     H40     1.9971   -2.6618   -2.2098 H        1 ZINC000028890319    0.1200
41     H41     0.9621   -0.4276   -2.2198 H        1 ZINC000028890319    0.1200
@<TRIPOS>BOND
1     1     2     2
2     2     18    1
3     2     3     1
4     3     4     1
5     4     5     1
6     4     6     1
7     4     17    1
8     6     7     1
9     6     27    1
10    6     28    1
11    7     8     1
12    8     13    ar
13    8     9     ar
14    9     10    ar
15    9     29    1
16    10    11    ar
17    10    30    1
18    11    12    ar
19    11    31    1
20    12    13    ar
21    12    32    1
22    13    14    1
23    14    15    2
24    14    16    2
25    17    18    1
26    17    33    1
27    17    34    1
28    18    19    1
29    18    20    1
30    20    21    1
31    20    35    1
32    20    36    1
33    21    26    ar
34    21    22    ar
35    22    23    ar
36    22    37    1
37    23    24    ar
38    23    38    1
39    24    25    ar
40    24    39    1
41    25    26    ar
42    25    40    1
43    26    41    1
@<TRIPOS>SUBSTRUCTURE
1   ZINC000028890319 1     RESIDUE    1   A     ZIN   1


@<TRIPOS>MOLECULE
C1=CC(=CN=C1)CNC(=O)C2=CC=C(O2)[N+](=O)[O-]
  27   28    0    0    0
SMALL
USER_CHARGES
NO_NAME
@<TRIPOS>ATOM
    1 O1        0.0021    -0.0041     0.0020 O.2    1 <0>      -0.4900
    2 C2       -0.0144     1.2128     0.0087 C.2    1 <0>       0.6000
    3 N3        1.1435     1.9025     0.0014 N.am   1 <0>      -0.7100
    4 C4        2.4220     1.1873    -0.0147 C.3    1 <0>       0.1700
    5 C5        3.5540     2.1821    -0.0202 C.ar   1 <0>      -0.1700
    6 C6        4.0660     2.6562    -1.2180 C.ar   1 <0>      -0.0500
    7 C7        5.1073     3.5710    -1.1747 C.ar   1 <0>      -0.1700
    8 C8        5.5965     3.9767     0.0523 C.ar   1 <0>       0.1100
    9 N9        5.0848     3.5043     1.1723 N.ar   1 <0>      -0.4800
   10 C10       4.0911     2.6377     1.1692 C.ar   1 <0>       0.1200
   11 C11      -1.2943     1.9287     0.0187 C.2    1 <0>       0.0000
   12 C12      -2.5339     1.3561     0.0269 C.2    1 <0>      -0.1200
   13 C13      -3.4639     2.4074     0.0347 C.2    1 <0>      -0.0900
   14 C14      -2.7602     3.5610     0.0310 C.2    1 <0>       0.0400
   15 N15      -3.3385     4.9236     0.0374 N.pl3  1 <0>       0.0600
   16 O16      -4.5474     5.0721     0.0468 O.2    1 <0>      -0.1100
   17 O17      -2.6055     5.8963     0.0331 O.2    1 <0>      -0.1200
   18 O18      -1.4533     3.2684     0.0272 O.3    1 <0>      -0.1400
   19 H19       1.1303     2.8724     0.0067 H      1 <0>       0.4100
   20 H20       2.4967     0.5567     0.8712 H      1 <0>       0.0900
   21 H21       2.4797     0.5663    -0.9086 H      1 <0>       0.0900
   22 H22       3.6636     2.3209    -2.1625 H      1 <0>       0.1400
   23 H23       5.5308     3.9611    -2.0884 H      1 <0>       0.1400
   24 H24       6.4076     4.6885     0.0946 H      1 <0>       0.1600
   25 H25       3.6979     2.2730     2.1067 H      1 <0>       0.1600
   26 H26      -2.7558     0.2992     0.0270 H      1 <0>       0.1900
   27 H27      -4.5397     2.3122     0.0420 H      1 <0>       0.1900
@<TRIPOS>BOND
   1    1    2 2
   2    2    3 am
   3    2   11 1
   4    3    4 1
   5    3   19 1
   6    4    5 1
   7    4   20 1
   8    4   21 1
   9    5   10 ar
  10    5    6 ar
  11    6    7 ar
  12    6   22 1
  13    7    8 ar
  14    7   23 1
  15    8    9 ar
  16    8   24 1
  17    9   10 ar
  18   10   25 1
  19   11   18 1
  20   11   12 2
  21   12   13 1
  22   12   26 1
  23   13   14 2
  24   13   27 1
  25   14   15 1
  26   14   18 1
  27   15   16 2
  28   15   17 2


@<TRIPOS>MOLECULE
CC1=CC=C(C=C1)NC2=NC(=CS2)C3=CC=CC=N3
32    34    1     0     0
SMALL
USER_CHARGES
@<TRIPOS>ATOM
1      C1      0.0728    1.5033    0.0017 C.3      1 ZINC000000190251   -0.1200
2      C2      0.0688   -0.0037   -0.0042 C.ar     1 ZINC000000190251   -0.1000
3      C3      0.8663   -0.6992    0.8861 C.ar     1 ZINC000000190251   -0.0800
4      C4      0.8654   -2.0802    0.8831 C.ar     1 ZINC000000190251   -0.1600
5      C5      0.0618   -2.7707   -0.0154 C.ar     1 ZINC000000190251    0.1500
6      N6      0.0581   -4.1682   -0.0209 N.pl3    1 ZINC000000190251   -0.6300
7      C7      0.1778   -4.8663    1.1706 C.2      1 ZINC000000190251    0.3300
8      N8      0.3034   -6.1526    1.2753 N.2      1 ZINC000000190251   -0.5200
9      C9      0.4061   -6.6495    2.5075 C.2      1 ZINC000000190251    0.1300
10     C10     0.5547   -8.1003    2.7680 C.ar     1 ZINC000000190251    0.1900
11     C11     0.5958   -8.9943    1.6988 C.ar     1 ZINC000000190251   -0.1400
12     C12     0.7350  -10.3462    1.9581 C.ar     1 ZINC000000190251   -0.0800
13     C13     0.8287  -10.7617    3.2793 C.ar     1 ZINC000000190251   -0.1700
14     C14     0.7808   -9.8212    4.2911 C.ar     1 ZINC000000190251    0.1000
15     N15     0.6531   -8.5385    4.0174 N.ar     1 ZINC000000190251   -0.4800
16     C16     0.3657   -5.7403    3.4982 C.2      1 ZINC000000190251   -0.2400
17     S17     0.1905   -4.1428    2.7759 S.3      1 ZINC000000190251    0.1000
18     C18    -0.7385   -2.0689   -0.9081 C.ar     1 ZINC000000190251   -0.1400
19     C19    -0.7367   -0.6879   -0.8962 C.ar     1 ZINC000000190251   -0.0900
20     H20    -0.6887    1.8659    0.6922 H        1 ZINC000000190251    0.0700
21     H21     1.0517    1.8628    0.3189 H        1 ZINC000000190251    0.0700
22     H22    -0.1418    1.8712   -1.0017 H        1 ZINC000000190251    0.0700
23     H23     1.4908   -0.1617    1.5843 H        1 ZINC000000190251    0.1300
24     H24     1.4890   -2.6227    1.5782 H        1 ZINC000000190251    0.1300
25     H25    -0.0283   -4.6497   -0.8585 H        1 ZINC000000190251    0.4200
26     H26     0.5197   -8.6366    0.6826 H        1 ZINC000000190251    0.1400
27     H27     0.7695  -11.0624    1.1504 H        1 ZINC000000190251    0.1400
28     H28     0.9376  -11.8101    3.5144 H        1 ZINC000000190251    0.1400
29     H29     0.8531  -10.1416    5.3200 H        1 ZINC000000190251    0.1600
30     H30     0.4331   -5.9528    4.5549 H        1 ZINC000000190251    0.1900
31     H31    -1.3644   -2.6026   -1.6079 H        1 ZINC000000190251    0.1300
32     H32    -1.3586   -0.1417   -1.5899 H        1 ZINC000000190251    0.1300
@<TRIPOS>BOND
1     1     2     1
2     1     20    1
3     1     21    1
4     1     22    1
5     2     19    ar
6     2     3     ar
7     3     4     ar
8     3     23    1
9     4     5     ar
10    4     24    1
11    5     6     1
12    5     18    ar
13    6     7     1
14    6     25    1
15    7     17    1
16    7     8     2
17    8     9     1
18    9     10    1
19    9     16    2
20    10    15    ar
21    10    11    ar
22    11    12    ar
23    11    26    1
24    12    13    ar
25    12    27    1
26    13    14    ar
27    13    28    1
28    14    15    ar
29    14    29    1
30    16    17    1
31    16    30    1
32    18    19    ar
33    18    31    1
34    19    32    1
@<TRIPOS>SUBSTRUCTURE
1   ZINC000000190251 1     RESIDUE    1   A     ZIN   1


@<TRIPOS>MOLECULE
CSC1=CC=CC=C1C(=O)NC2=NC(=CS2)C3=CC=CC=N3
35    37    1     0     0
SMALL
USER_CHARGES
@<TRIPOS>ATOM
1      C1     -0.0225    1.8097    0.0120 C.3      1 ZINC000006823436   -0.2000
2      S2      0.0021   -0.0041    0.0020 S.3      1 ZINC000006823436    0.0000
3      C3      0.8516   -0.3807   -1.4950 C.ar     1 ZINC000006823436   -0.0400
4      C4      1.3105    0.6436   -2.3149 C.ar     1 ZINC000006823436   -0.1500
5      C5      1.9752    0.3458   -3.4864 C.ar     1 ZINC000006823436   -0.0600
6      C6      2.1910   -0.9726   -3.8558 C.ar     1 ZINC000006823436   -0.1400
7      C7      1.7434   -2.0020   -3.0569 C.ar     1 ZINC000006823436   -0.0600
8      C8      1.0738   -1.7180   -1.8638 C.ar     1 ZINC000006823436   -0.1300
9      C9      0.5925   -2.8139   -1.0046 C.2      1 ZINC000006823436    0.5600
10     O10     0.0101   -2.5622    0.0329 O.2      1 ZINC000006823436   -0.4700
11     N11     0.7975   -4.0953   -1.3686 N.am     1 ZINC000006823436   -0.6200
12     C12     0.3440   -5.1279   -0.5590 C.2      1 ZINC000006823436    0.2700
13     N13     0.4892   -6.3921   -0.8058 N.2      1 ZINC000006823436   -0.5000
14     C14    -0.0100   -7.2406    0.0830 C.2      1 ZINC000006823436    0.1200
15     C15     0.0898   -8.7098   -0.0810 C.ar     1 ZINC000006823436    0.1900
16     C16     0.7319   -9.2387   -1.1999 C.ar     1 ZINC000006823436   -0.1400
17     C17     0.8175  -10.6126   -1.3388 C.ar     1 ZINC000006823436   -0.0800
18     C18     0.2578  -11.4147   -0.3537 C.ar     1 ZINC000006823436   -0.1700
19     C19    -0.3644  -10.8236    0.7299 C.ar     1 ZINC000006823436    0.1000
20     N20    -0.4281   -9.5121    0.8413 N.ar     1 ZINC000006823436   -0.4800
21     C21    -0.6133   -6.6742    1.1446 C.2      1 ZINC000006823436   -0.2500
22     S22    -0.5115   -4.9240    0.9667 S.3      1 ZINC000006823436    0.2200
23     H23     1.0001    2.1870    0.0043 H        1 ZINC000006823436    0.0800
24     H24    -0.5497    2.1708   -0.8711 H        1 ZINC000006823436    0.0800
25     H25    -0.5327    2.1613    0.9088 H        1 ZINC000006823436    0.1100
26     H26     1.1462    1.6736   -2.0346 H        1 ZINC000006823436    0.1400
27     H27     2.3296    1.1453   -4.1202 H        1 ZINC000006823436    0.1300
28     H28     2.7126   -1.1942   -4.7751 H        1 ZINC000006823436    0.1400
29     H29     1.9139   -3.0273   -3.3502 H        1 ZINC000006823436    0.1300
30     H30     1.2620   -4.2960   -2.1962 H        1 ZINC000006823436    0.4200
31     H31     1.1561   -8.5852   -1.9478 H        1 ZINC000006823436    0.1400
32     H32     1.3085  -11.0513   -2.1948 H        1 ZINC000006823436    0.1400
33     H33     0.3078  -12.4906   -0.4333 H        1 ZINC000006823436    0.1400
34     H34    -0.8009  -11.4452    1.4977 H        1 ZINC000006823436    0.1600
35     H35    -1.0757   -7.2014    1.9660 H        1 ZINC000006823436    0.1900
@<TRIPOS>BOND
1     1     2     1
2     1     23    1
3     1     24    1
4     1     25    1
5     2     3     1
6     3     8     ar
7     3     4     ar
8     4     5     ar
9     4     26    1
10    5     6     ar
11    5     27    1
12    6     7     ar
13    6     28    1
14    7     8     ar
15    7     29    1
16    8     9     1
17    9     10    2
18    9     11    am
19    11    12    1
20    11    30    1
21    12    22    1
22    12    13    2
23    13    14    1
24    14    15    1
25    14    21    2
26    15    20    ar
27    15    16    ar
28    16    17    ar
29    16    31    1
30    17    18    ar
31    17    32    1
32    18    19    ar
33    18    33    1
34    19    20    ar
35    19    34    1
36    21    22    1
37    21    35    1
@<TRIPOS>SUBSTRUCTURE
1   ZINC000006823436 1     RESIDUE    1   A     ZIN   1


@<TRIPOS>MOLECULE
CN(C)CCCN1C=C(C2=CC=CC=C21)C3=C(C(=O)NC3=O)C4=CNC5=CC=CC=C54
56    60    1     0     0
SMALL
USER_CHARGES
@<TRIPOS>ATOM
1      C1     -0.0178    1.4648    0.0101 C.3      1 ZINC000000585151   -0.0500
2      N2      0.0021   -0.0041    0.0020 N.4      1 ZINC000000585151   -0.3900
3      H3      0.4743   -0.3295   -0.8281 H        1 ZINC000000585151    0.4300
4      C4      0.7126   -0.4907    1.1921 C.3      1 ZINC000000585151   -0.0500
5      C5     -1.3761   -0.5125    0.0124 C.3      1 ZINC000000585151   -0.0100
6      C6     -1.3584   -2.0365   -0.1216 C.3      1 ZINC000000585151   -0.1700
7      C7     -2.7938   -2.5661   -0.1108 C.3      1 ZINC000000585151    0.1200
8      N8     -2.7769   -4.0254   -0.2392 N.pl3    1 ZINC000000585151   -0.4800
9      C9     -2.9035   -4.7044   -1.4120 C.2      1 ZINC000000585151    0.0900
10     C10    -2.8450   -6.0461   -1.1745 C.2      1 ZINC000000585151   -0.1200
11     C11    -2.9420   -7.1226   -2.1745 C.2      1 ZINC000000585151   -0.0400
12     C12    -1.9598   -7.5172   -3.0754 C.2      1 ZINC000000585151   -0.0200
13     C13    -0.6116   -6.9436   -3.2227 C.2      1 ZINC000000585151   -0.1400
14     C14     0.4527   -7.1378   -2.3923 C.2      1 ZINC000000585151    0.1000
15     N15     1.5281   -6.4438   -2.8555 N.pl3    1 ZINC000000585151   -0.5900
16     C16     1.1998   -5.7682   -4.0125 C.ar     1 ZINC000000585151    0.0900
17     C17     1.9174   -4.9343   -4.8633 C.ar     1 ZINC000000585151   -0.1300
18     C18     1.3048   -4.3910   -5.9718 C.ar     1 ZINC000000585151   -0.1000
19     C19    -0.0258   -4.6668   -6.2505 C.ar     1 ZINC000000585151   -0.1400
20     C20    -0.7542   -5.4901   -5.4197 C.ar     1 ZINC000000585151   -0.0700
21     C21    -0.1459   -6.0521   -4.2996 C.ar     1 ZINC000000585151   -0.0800
22     C22    -2.5421   -8.6290   -3.8552 C.2      1 ZINC000000585151    0.5500
23     O23    -1.9835   -9.2396   -4.7446 O.2      1 ZINC000000585151   -0.4400
24     N24    -3.7924   -8.8522   -3.4165 N.am     1 ZINC000000585151   -0.6900
25     C25    -4.1007   -8.0062   -2.4191 C.2      1 ZINC000000585151    0.5600
26     O26    -5.1590   -7.9682   -1.8237 O.2      1 ZINC000000585151   -0.4500
27     C27    -2.6658   -6.2072    0.2793 C.ar     1 ZINC000000585151   -0.0800
28     C28    -2.5396   -7.3097    1.1211 C.ar     1 ZINC000000585151   -0.0700
29     C29    -2.3802   -7.1185    2.4764 C.ar     1 ZINC000000585151   -0.1300
30     C30    -2.3455   -5.8357    3.0031 C.ar     1 ZINC000000585151   -0.0900
31     C31    -2.4691   -4.7357    2.1820 C.ar     1 ZINC000000585151   -0.1300
32     C32    -2.6245   -4.9073    0.8106 C.ar     1 ZINC000000585151    0.0900
33     H33     1.0047    1.8421    0.0024 H        1 ZINC000000585151    0.1300
34     H34    -0.5450    1.8259   -0.8730 H        1 ZINC000000585151    0.1200
35     H35    -0.5280    1.8163    0.9069 H        1 ZINC000000585151    0.1200
36     H36     0.7274   -1.5806    1.1861 H        1 ZINC000000585151    0.1200
37     H37     1.7352   -0.1134    1.1844 H        1 ZINC000000585151    0.1300
38     H38     0.2024   -0.1392    2.0889 H        1 ZINC000000585151    0.1200
39     H39    -1.8584   -0.2358    0.9500 H        1 ZINC000000585151    0.1300
40     H40    -1.9290   -0.0808   -0.8218 H        1 ZINC000000585151    0.1400
41     H41    -0.8762   -2.3132   -1.0592 H        1 ZINC000000585151    0.1000
42     H42    -0.8055   -2.4683    0.7126 H        1 ZINC000000585151    0.1000
43     H43    -3.2761   -2.2894    0.8268 H        1 ZINC000000585151    0.1000
44     H44    -3.3467   -2.1344   -0.9450 H        1 ZINC000000585151    0.1000
45     H45    -3.0310   -4.2498   -2.3833 H        1 ZINC000000585151    0.1800
46     H46     0.4435   -7.7492   -1.5020 H        1 ZINC000000585151    0.1800
47     H47     2.4008   -6.4266   -2.4322 H        1 ZINC000000585151    0.4200
48     H48     2.9537   -4.7124   -4.6552 H        1 ZINC000000585151    0.1200
49     H49     1.8660   -3.7439   -6.6297 H        1 ZINC000000585151    0.1300
50     H50    -0.4933   -4.2338   -7.1225 H        1 ZINC000000585151    0.1300
51     H51    -1.7902   -5.7027   -5.6385 H        1 ZINC000000585151    0.1200
52     H52    -4.3880   -9.5325   -3.7679 H        1 ZINC000000585151    0.4300
53     H53    -2.5670   -8.3096    0.7137 H        1 ZINC000000585151    0.1200
54     H54    -2.2821   -7.9714    3.1316 H        1 ZINC000000585151    0.1300
55     H55    -2.2207   -5.6977    4.0670 H        1 ZINC000000585151    0.1300
56     H56    -2.4407   -3.7414    2.6026 H        1 ZINC000000585151    0.1200
@<TRIPOS>BOND
1     1     2     1
2     1     33    1
3     1     34    1
4     1     35    1
5     2     3     1
6     2     4     1
7     2     5     1
8     4     36    1
9     4     37    1
10    4     38    1
11    5     6     1
12    5     39    1
13    5     40    1
14    6     7     1
15    6     41    1
16    6     42    1
17    7     8     1
18    7     43    1
19    7     44    1
20    8     32    1
21    8     9     1
22    9     10    2
23    9     45    1
24    10    11    1
25    10    27    1
26    11    25    1
27    11    12    2
28    12    13    1
29    12    22    1
30    13    21    1
31    13    14    2
32    14    15    1
33    14    46    1
34    15    16    1
35    15    47    1
36    16    21    ar
37    16    17    ar
38    17    18    ar
39    17    48    1
40    18    19    ar
41    18    49    1
42    19    20    ar
43    19    50    1
44    20    21    ar
45    20    51    1
46    22    23    2
47    22    24    am
48    24    25    am
49    24    52    1
50    25    26    2
51    27    32    ar
52    27    28    ar
53    28    29    ar
54    28    53    1
55    29    30    ar
56    29    54    1
57    30    31    ar
58    30    55    1
59    31    32    ar
60    31    56    1
@<TRIPOS>SUBSTRUCTURE
1   ZINC000000585151 1     RESIDUE    1   A     ZIN   1


@<TRIPOS>MOLECULE
CN1C=C(C2=CC=CC=C21)C3=C(C(=O)NC3=O)C4=CN(C5=CC=CC=C54)CCCSC(=N)N
  57   61    0    0    0
SMALL
USER_CHARGES
NO_NAME
@<TRIPOS>ATOM
    1 C1       -0.0178     1.4608     0.0101 C.3    1 <0>       0.0800
    2 N2        0.0021    -0.0041     0.0020 N.pl3  1 <0>      -0.4800
    3 C3        0.0078    -0.7756    -1.1193 C.2    1 <0>       0.1000
    4 C4        0.0272    -2.0937    -0.7697 C.2    1 <0>      -0.1400
    5 C5        0.0390    -3.2475    -1.6846 C.2    1 <0>      -0.0200
    6 C6        1.1165    -3.7121    -2.4297 C.2    1 <0>      -0.0400
    7 C7        2.4773    -3.1505    -2.4636 C.2    1 <0>      -0.1200
    8 C8        3.4356    -3.2757    -1.5013 C.2    1 <0>       0.0900
    9 N9        4.5635    -2.6200    -1.8895 N.pl3  1 <0>      -0.4800
   10 C10       5.7982    -2.5416    -1.1049 C.3    1 <0>       0.1200
   11 C11       5.8029    -1.2469    -0.2896 C.3    1 <0>      -0.1300
   12 C12       7.0924    -1.1650     0.5299 C.3    1 <0>      -0.1400
   13 S13       7.0980     0.3666     1.4944 S.3    1 <0>       0.0800
   14 C14       8.6482     0.2049     2.3163 C.cat  1 <0>       0.4800
   15 N15       9.3426     1.2929     2.6494 N.pl3  1 <0>      -0.7400
   16 N16       9.1265    -1.0054     2.6049 N.pl3  1 <0>      -0.7600
   17 H17       9.9799    -1.0944     3.0573 H      1 <0>       0.4300
   18 H18       8.6212    -1.7971     2.3625 H      1 <0>       0.4400
   19 C19       4.3781    -2.0403    -3.1275 C.ar   1 <0>       0.1000
   20 C20       5.1971    -1.2767    -3.9524 C.ar   1 <0>      -0.1300
   21 C21       4.7226    -0.8253    -5.1651 C.ar   1 <0>      -0.0900
   22 C22       3.4315    -1.1244    -5.5747 C.ar   1 <0>      -0.1400
   23 C23       2.6043    -1.8791    -4.7716 C.ar   1 <0>      -0.0700
   24 C24       3.0730    -2.3482    -3.5466 C.ar   1 <0>      -0.0800
   25 C25       0.6203    -4.8839    -3.1806 C.2    1 <0>       0.5600
   26 O26       1.2740    -5.5635    -3.9466 O.2    1 <0>      -0.4500
   27 N27      -0.6746    -5.0727    -2.8750 N.am   1 <0>      -0.6900
   28 C28      -1.0904    -4.1494    -1.9916 C.2    1 <0>       0.5500
   29 O29      -2.2107    -4.0648    -1.5293 O.2    1 <0>      -0.4400
   30 C30       0.0340    -2.1368     0.7032 C.ar   1 <0>      -0.0800
   31 C31       0.0519    -3.1678     1.6397 C.ar   1 <0>      -0.0700
   32 C32       0.0535    -2.8677     2.9846 C.ar   1 <0>      -0.1400
   33 C33       0.0369    -1.5466     3.4072 C.ar   1 <0>      -0.1000
   34 C34       0.0190    -0.5165     2.4917 C.ar   1 <0>      -0.1300
   35 C35       0.0236    -0.7983     1.1297 C.ar   1 <0>       0.0900
   36 H36       1.0048     1.8381     0.0023 H      1 <0>       0.0700
   37 H37      -0.5450     1.8219    -0.8730 H      1 <0>       0.0900
   38 H38      -0.5280     1.8123     0.9069 H      1 <0>       0.0900
   39 H39      -0.0015    -0.4009    -2.1322 H      1 <0>       0.1700
   40 H40       3.3174    -3.8134    -0.5721 H      1 <0>       0.1700
   41 H41       5.8549    -3.3959    -0.4304 H      1 <0>       0.1000
   42 H42       6.6566    -2.5512    -1.7765 H      1 <0>       0.1000
   43 H43       5.7461    -0.3926    -0.9640 H      1 <0>       0.0900
   44 H44       4.9444    -1.2373     0.3820 H      1 <0>       0.0900
   45 H45       7.1491    -2.0194     1.2044 H      1 <0>       0.1100
   46 H46       7.9509    -1.1746    -0.1417 H      1 <0>       0.1200
   47 H47       8.9945     2.1736     2.4394 H      1 <0>       0.4500
   48 H48      10.1960     1.2039     3.1019 H      1 <0>       0.4300
   49 H49       6.2037    -1.0375    -3.6429 H      1 <0>       0.1200
   50 H50       5.3621    -0.2327    -5.8025 H      1 <0>       0.1300
   51 H51       3.0727    -0.7638    -6.5274 H      1 <0>       0.1300
   52 H52       1.5993    -2.1099    -5.0925 H      1 <0>       0.1200
   53 H53      -1.2305    -5.7798    -3.2380 H      1 <0>       0.4300
   54 H54       0.0642    -4.1972     1.3134 H      1 <0>       0.1200
   55 H55       0.0674    -3.6649     3.7131 H      1 <0>       0.1300
   56 H56       0.0376    -1.3230     4.4638 H      1 <0>       0.1300
   57 H57       0.0062     0.5086     2.8315 H      1 <0>       0.1200
@<TRIPOS>BOND
   1    1    2 1
   2    1   36 1
   3    1   37 1
   4    1   38 1
   5    2   35 1
   6    2    3 1
   7    3    4 2
   8    3   39 1
   9    4    5 1
  10    4   30 1
  11    5   28 1
  12    5    6 2
  13    6    7 1
  14    6   25 1
  15    7   24 1
  16    7    8 2
  17    8    9 1
  18    8   40 1
  19    9   10 1
  20    9   19 1
  21   10   11 1
  22   10   41 1
  23   10   42 1
  24   11   12 1
  25   11   43 1
  26   11   44 1
  27   12   13 1
  28   12   45 1
  29   12   46 1
  30   13   14 1
  31   14   15 ar
  32   14   16 ar
  33   15   47 1
  34   15   48 1
  35   16   17 1
  36   16   18 1
  37   19   24 ar
  38   19   20 ar
  39   20   21 ar
  40   20   49 1
  41   21   22 ar
  42   21   50 1
  43   22   23 ar
  44   22   51 1
  45   23   24 ar
  46   23   52 1
  47   25   26 2
  48   25   27 am
  49   27   28 am
  50   27   53 1
  51   28   29 2
  52   30   35 ar
  53   30   31 ar
  54   31   32 ar
  55   31   54 1
  56   32   33 ar
  57   32   55 1
  58   33   34 ar
  59   33   56 1
  60   34   35 ar
  61   34   57 1


@<TRIPOS>MOLECULE
CC12C(C(CC(O1)N3C4=CC=CC=C4C5=C6C(=C7C8=CC=CC=C8N2C7=C53)CNC6=O)NC)OC
  62   69    0    0    0
SMALL
USER_CHARGES
NO_NAME
@<TRIPOS>ATOM
    1 C1       -0.9661     1.0031     0.4683 C.3    1 <0>      -0.0500
    2 N2        0.0189     0.0032     0.0346 N.4    1 <0>      -0.5200
    3 H3       -0.4575    -0.7682    -0.4082 H      1 <0>       0.4300
    4 H4        0.6591     0.4245    -0.6217 H      1 <0>       0.4300
    5 C5        0.7653    -0.4868     1.2011 C.3    1 <0>      -0.0100
    6 H6        0.4030     0.0058     2.1034 H      1 <0>       0.1600
    7 C7        2.2595    -0.1983     1.0181 C.3    1 <0>      -0.1800
    8 C8        2.7619    -0.9023    -0.2361 C.3    1 <0>       0.3000
    9 H9        3.8508    -0.8586    -0.2138 H      1 <0>       0.1600
   10 O10       2.4012    -2.2646    -0.2735 O.3    1 <0>      -0.3200
   11 C11       1.0934    -2.6719     0.0586 C.3    1 <0>       0.3300
   12 C12       1.1521    -4.1700     0.3640 C.3    1 <0>      -0.1700
   13 C13       0.5850    -2.0035     1.3313 C.3    1 <0>       0.0400
   14 H14       1.1399    -2.3845     2.1886 H      1 <0>       0.1400
   15 O15      -0.8050    -2.2900     1.4976 O.3    1 <0>      -0.3600
   16 C16      -1.2299    -2.3358     2.8612 C.3    1 <0>       0.0200
   17 N17       0.1539    -2.4960    -1.0500 N.pl3  1 <0>      -0.5100
   18 C18      -0.9555    -3.2665    -1.3051 C.ar   1 <0>       0.1500
   19 C19      -1.5981    -2.7707    -2.4611 C.ar   1 <0>      -0.1000
   20 C20      -2.7601    -3.3595    -2.9591 C.ar   1 <0>      -0.0500
   21 C21      -3.2512    -4.4544    -2.2672 C.ar   1 <0>      -0.1300
   22 C22      -2.6226    -4.9436    -1.1358 C.ar   1 <0>      -0.0700
   23 C23      -1.4695    -4.3706    -0.6261 C.ar   1 <0>      -0.1300
   24 C24      -0.8079    -1.6281    -2.9233 C.ar   1 <0>      -0.0400
   25 C25       0.2584    -1.5088    -2.0185 C.ar   1 <0>       0.0800
   26 C26       1.2121    -0.4989    -2.1905 C.ar   1 <0>       0.0500
   27 C27       1.1050     0.3895    -3.2623 C.ar   1 <0>       0.0100
   28 C28       2.2461     1.2937    -3.1535 C.ar   1 <0>      -0.1100
   29 C29       2.6635     2.3660    -3.9439 C.ar   1 <0>      -0.0300
   30 C30       3.8158     3.0230    -3.5467 C.ar   1 <0>      -0.1400
   31 C31       4.5234     2.6394    -2.4210 C.ar   1 <0>      -0.0600
   32 C32       4.1270     1.5772    -1.6258 C.ar   1 <0>      -0.1400
   33 C33       2.9702     0.8975    -2.0046 C.ar   1 <0>       0.1300
   34 N34       2.3272    -0.1879    -1.4373 N.pl3  1 <0>      -0.5400
   35 C35       0.0235     0.2714    -4.1666 C.ar   1 <0>      -0.1200
   36 C36      -0.9183    -0.7356    -3.9848 C.ar   1 <0>      -0.0300
   37 C37      -1.9244    -0.5868    -5.0999 C.3    1 <0>       0.1400
   38 N38      -1.4787     0.5585    -5.9015 N.am   1 <0>      -0.7200
   39 C39      -0.3518     1.0487    -5.3578 C.2    1 <0>       0.5600
   40 O40       0.2696     2.0011    -5.7892 O.2    1 <0>      -0.5100
   41 H41      -0.4515     1.8364     0.9466 H      1 <0>       0.1200
   42 H42      -1.5200     1.3667    -0.3973 H      1 <0>       0.1300
   43 H43      -1.6578     0.5480     1.1772 H      1 <0>       0.1300
   44 H44       2.4126     0.8763     0.9178 H      1 <0>       0.1200
   45 H45       2.8092    -0.5644     1.8853 H      1 <0>       0.1500
   46 H46       2.0849    -4.3996     0.8789 H      1 <0>       0.1000
   47 H47       0.3096    -4.4447     0.9987 H      1 <0>       0.1000
   48 H48       1.1035    -4.7330    -0.5681 H      1 <0>       0.0900
   49 H49      -2.2962    -2.5584     2.9022 H      1 <0>       0.1100
   50 H50      -0.6761    -3.1126     3.3884 H      1 <0>       0.0600
   51 H51      -1.0416    -1.3715     3.3331 H      1 <0>       0.0500
   52 H52      -3.2535    -2.9798    -3.8415 H      1 <0>       0.1400
   53 H53      -4.1490    -4.9395    -2.6206 H      1 <0>       0.1300
   54 H54      -3.0458    -5.8006    -0.6330 H      1 <0>       0.1300
   55 H55      -0.9887    -4.7625     0.2580 H      1 <0>       0.1400
   56 H56       2.1142     2.6684    -4.8232 H      1 <0>       0.1600
   57 H57       4.1724     3.8577    -4.1318 H      1 <0>       0.1400
   58 H58       5.4152     3.1868    -2.1538 H      1 <0>       0.1400
   59 H59       4.6894     1.2880    -0.7504 H      1 <0>       0.1400
   60 H60      -1.9419    -1.4886    -5.7118 H      1 <0>       0.1100
   61 H61      -2.9148    -0.3933    -4.6879 H      1 <0>       0.1100
   62 H62      -1.9231     0.9040    -6.6914 H      1 <0>       0.4300
@<TRIPOS>BOND
   1    1    2 1
   2    1   41 1
   3    1   42 1
   4    1   43 1
   5    2    3 1
   6    2    4 1
   7    2    5 1
   8    5    6 1
   9    5   13 1
  10    5    7 1
  11    7    8 1
  12    7   44 1
  13    7   45 1
  14    8    9 1
  15    8   34 1
  16    8   10 1
  17   10   11 1
  18   11   12 1
  19   11   13 1
  20   11   17 1
  21   12   46 1
  22   12   47 1
  23   12   48 1
  24   13   14 1
  25   13   15 1
  26   15   16 1
  27   16   49 1
  28   16   50 1
  29   16   51 1
  30   17   25 1
  31   17   18 1
  32   18   23 ar
  33   18   19 ar
  34   19   20 ar
  35   19   24 1
  36   20   21 ar
  37   20   52 1
  38   21   22 ar
  39   21   53 1
  40   22   23 ar
  41   22   54 1
  42   23   55 1
  43   24   36 ar
  44   24   25 ar
  45   25   26 ar
  46   26   34 1
  47   26   27 ar
  48   27   28 1
  49   27   35 ar
  50   28   33 ar
  51   28   29 ar
  52   29   30 ar
  53   29   56 1
  54   30   31 ar
  55   30   57 1
  56   31   32 ar
  57   31   58 1
  58   32   33 ar
  59   32   59 1
  60   33   34 1
  61   35   39 1
  62   35   36 ar
  63   36   37 1
  64   37   38 1
  65   37   60 1
  66   37   61 1
  67   38   39 am
  68   38   62 1
  69   39   40 2


@<TRIPOS>MOLECULE
CC1COCCN1C2=NC(=NC(=C2)C3(CC3)S(=N)(=O)C)C4=C5C=CNC5=NC=C4
53    57    1     0     0
SMALL
USER_CHARGES
@<TRIPOS>ATOM
1      C1     -0.0199    1.3876    2.6651 C.3      1 ZINC000096174406   -0.1500
2      C2     -0.2685    0.5797    1.3899 C.3      1 ZINC000096174406    0.0500
3      H3     -0.2725    1.2492    0.5298 H        1 ZINC000096174406    0.0700
4      C4     -1.6207   -0.1312    1.4905 C.3      1 ZINC000096174406    0.0700
5      O5     -1.8140   -0.9437    0.3296 O.3      1 ZINC000096174406   -0.3800
6      C6     -0.7964   -1.9309    0.1418 C.3      1 ZINC000096174406    0.0600
7      C7      0.5641   -1.2382    0.0275 C.3      1 ZINC000096174406    0.0200
8      N8      0.7958   -0.4215    1.2277 N.3      1 ZINC000096174406   -0.4800
9      C9      2.0430    0.1803    1.1857 C.ar     1 ZINC000096174406    0.3700
10     C10     3.0263   -0.1603    2.1182 C.ar     1 ZINC000096174406   -0.2300
11     C11     4.2563    0.4656    2.0385 C.ar     1 ZINC000096174406    0.2400
12     C12     5.3469    0.1294    3.0226 C.3      1 ZINC000096174406   -0.6000
13     S13     5.3542   -1.5803    3.6287 S.o2     1 ZINC000096174406    2.3400
14     C14     5.4161   -2.6635    2.1748 C.3      1 ZINC000096174406   -0.6400
15     N15     6.6214   -1.7810    4.3932 N.am     1 ZINC000096174406   -1.2100
16     O16     4.2793   -1.8746    4.5103 O.2      1 ZINC000096174406   -0.8800
17     C17     6.6997    0.8210    2.8415 C.3      1 ZINC000096174406   -0.1000
18     C18     5.7820    1.2261    3.9968 C.3      1 ZINC000096174406   -0.0900
19     N19     4.4661    1.3629    1.0883 N.ar     1 ZINC000096174406   -0.5000
20     C20     3.5145    1.6672    0.2158 C.ar     1 ZINC000096174406    0.3900
21     C21     3.7913    2.6774   -0.8321 C.ar     1 ZINC000096174406    0.0300
22     C22     2.7788    3.1149   -1.7054 C.ar     1 ZINC000096174406   -0.1100
23     C23     1.3624    2.7969   -1.8678 C.2      1 ZINC000096174406   -0.1800
24     C24     0.9089    3.5452   -2.8880 C.2      1 ZINC000096174406    0.0600
25     N25     1.9238    4.3144   -3.3883 N.pl3    1 ZINC000096174406   -0.5800
26     C26     3.0829    4.0766   -2.6881 C.ar     1 ZINC000096174406    0.2800
27     N27     4.3141    4.5592   -2.7816 N.ar     1 ZINC000096174406   -0.4800
28     C28     5.2798    4.1670   -1.9773 C.ar     1 ZINC000096174406    0.1300
29     C29     5.0630    3.2306   -0.9820 C.ar     1 ZINC000096174406   -0.1500
30     N30     2.3234    1.0856    0.2549 N.ar     1 ZINC000096174406   -0.5200
31     H31     0.9764    1.8281    2.6278 H        1 ZINC000096174406    0.0500
32     H32    -0.7645    2.1797    2.7444 H        1 ZINC000096174406    0.0700
33     H33    -0.0945    0.7307    3.5318 H        1 ZINC000096174406    0.0700
34     H34    -1.6362   -0.7594    2.3811 H        1 ZINC000096174406    0.0700
35     H35    -2.4177    0.6097    1.5531 H        1 ZINC000096174406    0.1100
36     H36    -0.7879   -2.6115    0.9932 H        1 ZINC000096174406    0.0700
37     H37    -0.9972   -2.4916   -0.7711 H        1 ZINC000096174406    0.1100
38     H38     1.3490   -1.9897   -0.0585 H        1 ZINC000096174406    0.0900
39     H39     0.5738   -0.5983   -0.8549 H        1 ZINC000096174406    0.0600
40     H40     2.8296   -0.8958    2.8843 H        1 ZINC000096174406    0.1600
41     H41     6.3615   -2.5169    1.6526 H        1 ZINC000096174406    0.1300
42     H42     5.3337   -3.7029    2.4924 H        1 ZINC000096174406    0.1400
43     H43     4.5902   -2.4214    1.5060 H        1 ZINC000096174406    0.1100
44     H44     7.4770   -1.6291    3.9624 H        1 ZINC000096174406    0.3800
45     H45     7.5943    0.2485    3.0864 H        1 ZINC000096174406    0.1100
46     H46     6.8007    1.5190    2.0105 H        1 ZINC000096174406    0.1300
47     H47     5.2794    2.1907    3.9258 H        1 ZINC000096174406    0.1100
48     H48     6.0730    0.9202    5.0017 H        1 ZINC000096174406    0.1200
49     H49     0.7893    2.0947   -1.2806 H        1 ZINC000096174406    0.1600
50     H50    -0.1058    3.5400   -3.2579 H        1 ZINC000096174406    0.1800
51     H51     1.8382    4.9360   -4.1280 H        1 ZINC000096174406    0.4200
52     H52     6.2663    4.5908   -2.0945 H        1 ZINC000096174406    0.1700
53     H53     5.8713    2.9250   -0.3342 H        1 ZINC000096174406    0.1500
@<TRIPOS>BOND
1     1     2     1
2     1     31    1
3     1     32    1
4     1     33    1
5     2     3     1
6     2     8     1
7     2     4     1
8     4     5     1
9     4     34    1
10    4     35    1
11    5     6     1
12    6     7     1
13    6     36    1
14    6     37    1
15    7     8     1
16    7     38    1
17    7     39    1
18    8     9     1
19    9     30    ar
20    9     10    ar
21    10    11    ar
22    10    40    1
23    11    12    1
24    11    19    ar
25    12    18    1
26    12    13    1
27    12    17    1
28    13    14    1
29    13    15    2
30    13    16    2
31    14    41    1
32    14    42    1
33    14    43    1
34    15    44    1
35    17    18    1
36    17    45    1
37    17    46    1
38    18    47    1
39    18    48    1
40    19    20    ar
41    20    21    1
42    20    30    ar
43    21    29    ar
44    21    22    ar
45    22    26    ar
46    22    23    1
47    23    24    2
48    23    49    1
49    24    25    1
50    24    50    1
51    25    26    1
52    25    51    1
53    26    27    ar
54    27    28    ar
55    28    29    ar
56    28    52    1
57    29    53    1
@<TRIPOS>SUBSTRUCTURE
1   ZINC000096174406 1     RESIDUE    1   A     ZIN   1


@<TRIPOS>MOLECULE
CC(C)(C1=NC(=CC=C1)N2C3=NC(=NC=C3C(=O)N2CC=C)NC4=CC=C(C=C4)N5CCN(CC5)C)O
70    74    1     0     0
SMALL
USER_CHARGES
@<TRIPOS>ATOM
1      C1      0.1303    1.0083    0.0300 C.2      1 ZINC000063539231   -0.1600
2      C2      0.1374   -0.2994   -0.0468 C.2      1 ZINC000063539231   -0.1800
3      C3     -1.1627   -1.0615   -0.0440 C.3      1 ZINC000063539231    0.1600
4      N4     -1.2255   -1.9243   -1.2262 N.am     1 ZINC000063539231   -0.3900
5      C5     -1.7289   -1.5671   -2.4261 C.2      1 ZINC000063539231    0.5800
6      O6     -2.2053   -0.4865   -2.7176 O.2      1 ZINC000063539231   -0.5000
7      C7     -1.5922   -2.7288   -3.3138 C.ar     1 ZINC000063539231   -0.3600
8      C8     -1.9169   -2.9875   -4.6426 C.ar     1 ZINC000063539231    0.3000
9      N9     -1.6467   -4.1831   -5.1405 N.ar     1 ZINC000063539231   -0.5800
10     C10    -1.0777   -5.1229   -4.3951 C.ar     1 ZINC000063539231    0.6200
11     N11    -0.8158   -6.3541   -4.9614 N.pl3    1 ZINC000063539231   -0.6300
12     C12    -1.0391   -6.5576   -6.3292 C.ar     1 ZINC000063539231    0.1600
13     C13    -0.8108   -5.5265   -7.2310 C.ar     1 ZINC000063539231   -0.0800
14     C14    -1.0309   -5.7271   -8.5792 C.ar     1 ZINC000063539231   -0.1000
15     C15    -1.4806   -6.9600   -9.0335 C.ar     1 ZINC000063539231    0.0700
16     N16    -1.7033   -7.1635  -10.3999 N.3      1 ZINC000063539231   -0.4800
17     C17    -2.6524   -6.1753  -10.9318 C.3      1 ZINC000063539231    0.0200
18     C18    -2.8224   -6.3944  -12.4367 C.3      1 ZINC000063539231    0.0000
19     N19    -3.3180   -7.7554  -12.6807 N.4      1 ZINC000063539231   -0.3900
20     H20    -4.2021   -7.8805  -12.2108 H        1 ZINC000063539231    0.4200
21     C21    -3.4978   -7.9593  -14.1243 C.3      1 ZINC000063539231   -0.0500
22     C22    -2.3481   -8.7311  -12.1661 C.3      1 ZINC000063539231    0.0000
23     C23    -2.1741   -8.5315  -10.6589 C.3      1 ZINC000063539231    0.0200
24     C24    -1.7089   -7.9911   -8.1316 C.ar     1 ZINC000063539231   -0.1400
25     C25    -1.4834   -7.7922   -6.7840 C.ar     1 ZINC000063539231   -0.1200
26     N26    -0.7516   -4.9202   -3.1253 N.ar     1 ZINC000063539231   -0.5900
27     C27    -0.9879   -3.7509   -2.5493 C.ar     1 ZINC000063539231    0.4700
28     N28    -0.7674   -3.2446   -1.2883 N.pl3    1 ZINC000063539231   -0.3000
29     C29    -0.1805   -3.9408   -0.2351 C.ar     1 ZINC000063539231    0.3600
30     C30     0.1363   -5.2859   -0.3901 C.ar     1 ZINC000063539231   -0.1800
31     C31     0.7192   -5.9658    0.6646 C.ar     1 ZINC000063539231   -0.0400
32     C32     0.9662   -5.2745    1.8428 C.ar     1 ZINC000063539231   -0.1600
33     C33     0.6257   -3.9388    1.9272 C.ar     1 ZINC000063539231    0.1300
34     C34     0.8917   -3.1826    3.2032 C.3      1 ZINC000063539231    0.1800
35     C35     0.4283   -1.7332    3.0433 C.3      1 ZINC000063539231   -0.1700
36     C36     0.1262   -3.8387    4.3540 C.3      1 ZINC000063539231   -0.1400
37     O37     2.2919   -3.2062    3.4879 O.3      1 ZINC000063539231   -0.5500
38     N38     0.0758   -3.3149    0.9031 N.ar     1 ZINC000063539231   -0.5000
39     H39     1.0621    1.5544    0.0280 H        1 ZINC000063539231    0.1000
40     H40    -0.8074    1.5406    0.0907 H        1 ZINC000063539231    0.1000
41     H41     1.0750   -0.8314   -0.1120 H        1 ZINC000063539231    0.1100
42     H42    -1.2233   -1.6733    0.8560 H        1 ZINC000063539231    0.1200
43     H43    -1.9958   -0.3588   -0.0623 H        1 ZINC000063539231    0.1100
44     H44    -2.3802   -2.2277   -5.2545 H        1 ZINC000063539231    0.1900
45     H45    -0.4770   -7.0783   -4.4122 H        1 ZINC000063539231    0.4300
46     H46    -0.4614   -4.5676   -6.8777 H        1 ZINC000063539231    0.1400
47     H47    -0.8537   -4.9251   -9.2805 H        1 ZINC000063539231    0.1300
48     H48    -3.6160   -6.2930  -10.4360 H        1 ZINC000063539231    0.0700
49     H49    -2.2705   -5.1705  -10.7514 H        1 ZINC000063539231    0.1300
50     H50    -3.5368   -5.6716  -12.8307 H        1 ZINC000063539231    0.1400
51     H51    -1.8613   -6.2632  -12.9338 H        1 ZINC000063539231    0.1400
52     H52    -2.5430   -7.8238  -14.6321 H        1 ZINC000063539231    0.1200
53     H53    -3.8656   -8.9693  -14.3055 H        1 ZINC000063539231    0.1200
54     H54    -4.2184   -7.2362  -14.5064 H        1 ZINC000063539231    0.1200
55     H55    -2.7108   -9.7406  -12.3594 H        1 ZINC000063539231    0.1400
56     H56    -1.3893   -8.5879  -12.6646 H        1 ZINC000063539231    0.1400
57     H57    -1.4433   -9.2456  -10.2794 H        1 ZINC000063539231    0.1300
58     H58    -3.1298   -8.6880  -10.1586 H        1 ZINC000063539231    0.0700
59     H59    -2.0590   -8.9498   -8.4847 H        1 ZINC000063539231    0.1300
60     H60    -1.6609   -8.5940   -6.0826 H        1 ZINC000063539231    0.1300
61     H61    -0.0702   -5.7931   -1.3210 H        1 ZINC000063539231    0.1700
62     H62     0.9759   -7.0109    0.5735 H        1 ZINC000063539231    0.1500
63     H63     1.4197   -5.7761    2.6849 H        1 ZINC000063539231    0.1500
64     H64    -0.6397   -1.7152    2.8261 H        1 ZINC000063539231    0.0700
65     H65     0.6207   -1.1863    3.9662 H        1 ZINC000063539231    0.0700
66     H66     0.9737   -1.2658    2.2234 H        1 ZINC000063539231    0.0700
67     H67     0.4564   -4.8713    4.4680 H        1 ZINC000063539231    0.0700
68     H68     0.3186   -3.2918    5.2770 H        1 ZINC000063539231    0.0800
69     H69    -0.9418   -3.8207    4.1369 H        1 ZINC000063539231    0.0700
70     H70     2.8401   -2.8057    2.7993 H        1 ZINC000063539231    0.3800
@<TRIPOS>BOND
1     1     2     2
2     1     39    1
3     1     40    1
4     2     3     1
5     2     41    1
6     3     4     1
7     3     42    1
8     3     43    1
9     4     28    1
10    4     5     am
11    5     6     2
12    5     7     1
13    7     27    ar
14    7     8     ar
15    8     9     ar
16    8     44    1
17    9     10    ar
18    10    11    1
19    10    26    ar
20    11    12    1
21    11    45    1
22    12    25    ar
23    12    13    ar
24    13    14    ar
25    13    46    1
26    14    15    ar
27    14    47    1
28    15    16    1
29    15    24    ar
30    16    23    1
31    16    17    1
32    17    18    1
33    17    48    1
34    17    49    1
35    18    19    1
36    18    50    1
37    18    51    1
38    19    20    1
39    19    21    1
40    19    22    1
41    21    52    1
42    21    53    1
43    21    54    1
44    22    23    1
45    22    55    1
46    22    56    1
47    23    57    1
48    23    58    1
49    24    25    ar
50    24    59    1
51    25    60    1
52    26    27    ar
53    27    28    1
54    28    29    1
55    29    38    ar
56    29    30    ar
57    30    31    ar
58    30    61    1
59    31    32    ar
60    31    62    1
61    32    33    ar
62    32    63    1
63    33    34    1
64    33    38    ar
65    34    35    1
66    34    36    1
67    34    37    1
68    35    64    1
69    35    65    1
70    35    66    1
71    36    67    1
72    36    68    1
73    36    69    1
74    37    70    1
@<TRIPOS>SUBSTRUCTURE
1   ZINC000063539231 1     RESIDUE    1   A     ZIN   1


@<TRIPOS>MOLECULE
CC12C(C(CC(O1)N3C4=CC=CC=C4C5=C6C(=C7C8=CC=CC=C8N2C7=C53)CNC6=O)NC)OC
  62   69    0    0    0
SMALL
USER_CHARGES
NO_NAME
@<TRIPOS>ATOM
    1 C1       -0.9661     1.0031     0.4683 C.3    1 <0>      -0.0500
    2 N2        0.0189     0.0032     0.0346 N.4    1 <0>      -0.5200
    3 H3       -0.4575    -0.7682    -0.4082 H      1 <0>       0.4300
    4 H4        0.6591     0.4245    -0.6217 H      1 <0>       0.4300
    5 C5        0.7653    -0.4868     1.2011 C.3    1 <0>      -0.0100
    6 H6        0.4030     0.0058     2.1034 H      1 <0>       0.1600
    7 C7        2.2595    -0.1983     1.0181 C.3    1 <0>      -0.1800
    8 C8        2.7619    -0.9023    -0.2361 C.3    1 <0>       0.3000
    9 H9        3.8508    -0.8586    -0.2138 H      1 <0>       0.1600
   10 O10       2.4012    -2.2646    -0.2735 O.3    1 <0>      -0.3200
   11 C11       1.0934    -2.6719     0.0586 C.3    1 <0>       0.3300
   12 C12       1.1521    -4.1700     0.3640 C.3    1 <0>      -0.1700
   13 C13       0.5850    -2.0035     1.3313 C.3    1 <0>       0.0400
   14 H14       1.1399    -2.3845     2.1886 H      1 <0>       0.1400
   15 O15      -0.8050    -2.2900     1.4976 O.3    1 <0>      -0.3600
   16 C16      -1.2299    -2.3358     2.8612 C.3    1 <0>       0.0200
   17 N17       0.1539    -2.4960    -1.0500 N.pl3  1 <0>      -0.5100
   18 C18      -0.9555    -3.2665    -1.3051 C.ar   1 <0>       0.1500
   19 C19      -1.5981    -2.7707    -2.4611 C.ar   1 <0>      -0.1000
   20 C20      -2.7601    -3.3595    -2.9591 C.ar   1 <0>      -0.0500
   21 C21      -3.2512    -4.4544    -2.2672 C.ar   1 <0>      -0.1300
   22 C22      -2.6226    -4.9436    -1.1358 C.ar   1 <0>      -0.0700
   23 C23      -1.4695    -4.3706    -0.6261 C.ar   1 <0>      -0.1300
   24 C24      -0.8079    -1.6281    -2.9233 C.ar   1 <0>      -0.0400
   25 C25       0.2584    -1.5088    -2.0185 C.ar   1 <0>       0.0800
   26 C26       1.2121    -0.4989    -2.1905 C.ar   1 <0>       0.0500
   27 C27       1.1050     0.3895    -3.2623 C.ar   1 <0>       0.0100
   28 C28       2.2461     1.2937    -3.1535 C.ar   1 <0>      -0.1100
   29 C29       2.6635     2.3660    -3.9439 C.ar   1 <0>      -0.0300
   30 C30       3.8158     3.0230    -3.5467 C.ar   1 <0>      -0.1400
   31 C31       4.5234     2.6394    -2.4210 C.ar   1 <0>      -0.0600
   32 C32       4.1270     1.5772    -1.6258 C.ar   1 <0>      -0.1400
   33 C33       2.9702     0.8975    -2.0046 C.ar   1 <0>       0.1300
   34 N34       2.3272    -0.1879    -1.4373 N.pl3  1 <0>      -0.5400
   35 C35       0.0235     0.2714    -4.1666 C.ar   1 <0>      -0.1200
   36 C36      -0.9183    -0.7356    -3.9848 C.ar   1 <0>      -0.0300
   37 C37      -1.9244    -0.5868    -5.0999 C.3    1 <0>       0.1400
   38 N38      -1.4787     0.5585    -5.9015 N.am   1 <0>      -0.7200
   39 C39      -0.3518     1.0487    -5.3578 C.2    1 <0>       0.5600
   40 O40       0.2696     2.0011    -5.7892 O.2    1 <0>      -0.5100
   41 H41      -0.4515     1.8364     0.9466 H      1 <0>       0.1200
   42 H42      -1.5200     1.3667    -0.3973 H      1 <0>       0.1300
   43 H43      -1.6578     0.5480     1.1772 H      1 <0>       0.1300
   44 H44       2.4126     0.8763     0.9178 H      1 <0>       0.1200
   45 H45       2.8092    -0.5644     1.8853 H      1 <0>       0.1500
   46 H46       2.0849    -4.3996     0.8789 H      1 <0>       0.1000
   47 H47       0.3096    -4.4447     0.9987 H      1 <0>       0.1000
   48 H48       1.1035    -4.7330    -0.5681 H      1 <0>       0.0900
   49 H49      -2.2962    -2.5584     2.9022 H      1 <0>       0.1100
   50 H50      -0.6761    -3.1126     3.3884 H      1 <0>       0.0600
   51 H51      -1.0416    -1.3715     3.3331 H      1 <0>       0.0500
   52 H52      -3.2535    -2.9798    -3.8415 H      1 <0>       0.1400
   53 H53      -4.1490    -4.9395    -2.6206 H      1 <0>       0.1300
   54 H54      -3.0458    -5.8006    -0.6330 H      1 <0>       0.1300
   55 H55      -0.9887    -4.7625     0.2580 H      1 <0>       0.1400
   56 H56       2.1142     2.6684    -4.8232 H      1 <0>       0.1600
   57 H57       4.1724     3.8577    -4.1318 H      1 <0>       0.1400
   58 H58       5.4152     3.1868    -2.1538 H      1 <0>       0.1400
   59 H59       4.6894     1.2880    -0.7504 H      1 <0>       0.1400
   60 H60      -1.9419    -1.4886    -5.7118 H      1 <0>       0.1100
   61 H61      -2.9148    -0.3933    -4.6879 H      1 <0>       0.1100
   62 H62      -1.9231     0.9040    -6.6914 H      1 <0>       0.4300
@<TRIPOS>BOND
   1    1    2 1
   2    1   41 1
   3    1   42 1
   4    1   43 1
   5    2    3 1
   6    2    4 1
   7    2    5 1
   8    5    6 1
   9    5   13 1
  10    5    7 1
  11    7    8 1
  12    7   44 1
  13    7   45 1
  14    8    9 1
  15    8   34 1
  16    8   10 1
  17   10   11 1
  18   11   12 1
  19   11   13 1
  20   11   17 1
  21   12   46 1
  22   12   47 1
  23   12   48 1
  24   13   14 1
  25   13   15 1
  26   15   16 1
  27   16   49 1
  28   16   50 1
  29   16   51 1
  30   17   25 1
  31   17   18 1
  32   18   23 ar
  33   18   19 ar
  34   19   20 ar
  35   19   24 1
  36   20   21 ar
  37   20   52 1
  38   21   22 ar
  39   21   53 1
  40   22   23 ar
  41   22   54 1
  42   23   55 1
  43   24   36 ar
  44   24   25 ar
  45   25   26 ar
  46   26   34 1
  47   26   27 ar
  48   27   28 1
  49   27   35 ar
  50   28   33 ar
  51   28   29 ar
  52   29   30 ar
  53   29   56 1
  54   30   31 ar
  55   30   57 1
  56   31   32 ar
  57   31   58 1
  58   32   33 ar
  59   32   59 1
  60   33   34 1
  61   35   39 1
  62   35   36 ar
  63   36   37 1
  64   37   38 1
  65   37   60 1
  66   37   61 1
  67   38   39 am
  68   38   62 1
  69   39   40 2


@<TRIPOS>MOLECULE
CCC(CO)NC1=NC(=C2C(=N1)N(C=N2)C(C)C)NCC3=CC=CC=C3
52    54    1     0     0
SMALL
USER_CHARGES
@<TRIPOS>ATOM
1      C1     -0.0187    1.5258    0.0104 C.3      1 ZINC000000602192   -0.1500
2      C2      0.0021   -0.0041    0.0020 C.3      1 ZINC000000602192   -0.1300
3      C3      0.7182   -0.4975   -1.2568 C.3      1 ZINC000000602192    0.1700
4      H4      1.7103   -0.0491   -1.3098 H        1 ZINC000000602192    0.1000
5      C5      0.8493   -2.0210   -1.2049 C.3      1 ZINC000000602192    0.0600
6      O6     -0.4420   -2.6041   -1.0184 O.3      1 ZINC000000602192   -0.5700
7      N7     -0.0549   -0.1139   -2.4405 N.pl3    1 ZINC000000602192   -0.6800
8      C8      0.5781    0.0318   -3.6639 C.ar     1 ZINC000000602192    0.6300
9      N9      1.8847   -0.1868   -3.7392 N.ar     1 ZINC000000602192   -0.6300
10     C10     2.5369   -0.0601   -4.8895 C.ar     1 ZINC000000602192    0.5400
11     N11     3.8995   -0.2906   -4.9584 N.pl3    1 ZINC000000602192   -0.6900
12     C12     4.6385   -0.6790   -3.7545 C.3      1 ZINC000000602192    0.1700
13     C13     6.0937   -0.8680   -4.0975 C.ar     1 ZINC000000602192   -0.1100
14     C14     6.5525   -2.1067   -4.5050 C.ar     1 ZINC000000602192   -0.1000
15     C15     7.8874   -2.2801   -4.8196 C.ar     1 ZINC000000602192   -0.1200
16     C16     8.7633   -1.2147   -4.7272 C.ar     1 ZINC000000602192   -0.1100
17     C17     8.3043    0.0242   -4.3206 C.ar     1 ZINC000000602192   -0.1200
18     C18     6.9686    0.1986   -4.0101 C.ar     1 ZINC000000602192   -0.1000
19     C19     1.8131    0.3127   -6.0351 C.ar     1 ZINC000000602192   -0.1600
20     N20     2.1344    0.5309   -7.3342 N.2      1 ZINC000000602192   -0.4500
21     C21     1.0643    0.8633   -7.9950 C.2      1 ZINC000000602192    0.2300
22     N22    -0.0135    0.8793   -7.1584 N.pl3    1 ZINC000000602192   -0.4700
23     C23    -1.3930    1.2055   -7.5281 C.3      1 ZINC000000602192    0.1300
24     C24    -1.4491    2.6303   -8.0827 C.3      1 ZINC000000602192   -0.1600
25     C25    -1.8810    0.2234   -8.5949 C.3      1 ZINC000000602192   -0.1600
26     C26     0.4318    0.5337   -5.9076 C.ar     1 ZINC000000602192    0.3500
27     N27    -0.1418    0.3790   -4.7185 N.ar     1 ZINC000000602192   -0.6200
28     H28     1.0039    1.9031    0.0027 H        1 ZINC000000602192    0.0500
29     H29    -0.5459    1.8868   -0.8726 H        1 ZINC000000602192    0.0600
30     H30    -0.5289    1.8773    0.9072 H        1 ZINC000000602192    0.0600
31     H31     0.5293   -0.3651    0.8851 H        1 ZINC000000602192    0.0800
32     H32    -1.0205   -0.3814    0.0098 H        1 ZINC000000602192    0.0800
33     H33     1.2788   -2.3807   -2.1399 H        1 ZINC000000602192    0.0500
34     H34     1.4980   -2.3018   -0.3753 H        1 ZINC000000602192    0.0500
35     H35    -0.4349   -3.5701   -0.9761 H        1 ZINC000000602192    0.3800
36     H36    -1.0102    0.0381   -2.3676 H        1 ZINC000000602192    0.4100
37     H37     4.3654   -0.1951   -5.8038 H        1 ZINC000000602192    0.4200
38     H38     4.5414    0.1023   -3.0007 H        1 ZINC000000602192    0.0800
39     H39     4.2328   -1.6126   -3.3646 H        1 ZINC000000602192    0.0800
40     H40     5.8681   -2.9391   -4.5772 H        1 ZINC000000602192    0.1200
41     H41     8.2460   -3.2481   -5.1372 H        1 ZINC000000602192    0.1200
42     H42     9.8063   -1.3504   -4.9723 H        1 ZINC000000602192    0.1200
43     H43     8.9887    0.8565   -4.2480 H        1 ZINC000000602192    0.1200
44     H44     6.6100    1.1665   -3.6924 H        1 ZINC000000602192    0.1200
45     H45     1.0336    1.0929   -9.0498 H        1 ZINC000000602192    0.2100
46     H46    -2.0319    1.1329   -6.6479 H        1 ZINC000000602192    0.1100
47     H47    -0.8102    2.7029   -8.9629 H        1 ZINC000000602192    0.0700
48     H48    -2.4755    2.8731   -8.3578 H        1 ZINC000000602192    0.0800
49     H49    -1.1014    3.3300   -7.3227 H        1 ZINC000000602192    0.0600
50     H50    -1.8411   -0.7917   -8.1997 H        1 ZINC000000602192    0.0600
51     H51    -2.9075    0.4661   -8.8699 H        1 ZINC000000602192    0.0800
52     H52    -1.2422    0.2960   -9.4750 H        1 ZINC000000602192    0.0700
@<TRIPOS>BOND
1     1     2     1
2     1     28    1
3     1     29    1
4     1     30    1
5     2     3     1
6     2     31    1
7     2     32    1
8     3     4     1
9     3     5     1
10    3     7     1
11    5     6     1
12    5     33    1
13    5     34    1
14    6     35    1
15    7     8     1
16    7     36    1
17    8     27    ar
18    8     9     ar
19    9     10    ar
20    10    11    1
21    10    19    ar
22    11    12    1
23    11    37    1
24    12    13    1
25    12    38    1
26    12    39    1
27    13    18    ar
28    13    14    ar
29    14    15    ar
30    14    40    1
31    15    16    ar
32    15    41    1
33    16    17    ar
34    16    42    1
35    17    18    ar
36    17    43    1
37    18    44    1
38    19    26    ar
39    19    20    1
40    20    21    2
41    21    22    1
42    21    45    1
43    22    23    1
44    22    26    1
45    23    24    1
46    23    25    1
47    23    46    1
48    24    47    1
49    24    48    1
50    24    49    1
51    25    50    1
52    25    51    1
53    25    52    1
54    26    27    ar
@<TRIPOS>SUBSTRUCTURE
1   ZINC000000602192 1     RESIDUE    1   A     ZIN   1


@<TRIPOS>MOLECULE
CC(C)(C)C1=CN=C(O1)CSC2=CN=C(S2)NC(=O)C3CCNCC3
  50   52    0    0    0
SMALL
USER_CHARGES
NO_NAME
@<TRIPOS>ATOM
    1 C1       -0.0187     1.5258     0.0104 C.3    1 <0>      -0.1400
    2 C2        0.0021    -0.0041     0.0020 C.3    1 <0>       0.0200
    3 C3        0.7421    -0.5109     1.2415 C.3    1 <0>      -0.1400
    4 C4       -1.4333    -0.5336     0.0129 C.3    1 <0>      -0.1500
    5 C5        0.7074    -0.4901    -1.2379 C.2    1 <0>      -0.0100
    6 C6        1.9790    -0.2319    -1.5855 C.2    1 <0>      -0.0400
    7 N7        2.2153    -0.8490    -2.7568 N.2    1 <0>      -0.4500
    8 C8        1.1320    -1.4698    -3.1277 C.2    1 <0>       0.1800
    9 C9        0.9742    -2.2844    -4.3857 C.3    1 <0>      -0.0300
   10 S10       1.4250    -4.0091    -4.0499 S.3    1 <0>       0.0300
   11 C11       1.1821    -4.7931    -5.6090 C.2    1 <0>      -0.2400
   12 C12       1.3800    -6.0917    -5.8751 C.2    1 <0>       0.0900
   13 N13       1.1336    -6.4631    -7.1186 N.2    1 <0>      -0.4500
   14 C14       0.7315    -5.5440    -7.9400 C.2    1 <0>       0.2800
   15 N15       0.4232    -5.7421    -9.2830 N.am   1 <0>      -0.6300
   16 C16       0.5350    -6.9706    -9.8260 C.2    1 <0>       0.5100
   17 O17       0.9041    -7.9036    -9.1444 O.2    1 <0>      -0.4500
   18 C18       0.2013    -7.1850   -11.2798 C.3    1 <0>      -0.1200
   19 C19       1.1196    -6.3209   -12.1489 C.3    1 <0>      -0.1500
   20 C20       0.8296    -6.6028   -13.6247 C.3    1 <0>       0.0000
   21 N21       1.0733    -8.0212   -13.9128 N.4    1 <0>      -0.5100
   22 H22       0.9330    -8.1924   -14.8972 H      1 <0>       0.4400
   23 H23       2.0226    -8.2557   -13.6636 H      1 <0>       0.4300
   24 C24       0.1469    -8.8536   -13.1360 C.3    1 <0>      -0.0100
   25 C25       0.4105    -8.6584   -11.6414 C.3    1 <0>      -0.1300
   26 S26       0.6295    -4.0067    -7.0863 S.3    1 <0>       0.1000
   27 O27       0.1830    -1.2702    -2.2034 O.3    1 <0>      -0.1900
   28 H28       1.0039     1.9031     0.0027 H      1 <0>       0.0600
   29 H29      -0.5459     1.8868    -0.8726 H      1 <0>       0.0600
   30 H30      -0.5289     1.8773     0.9072 H      1 <0>       0.0800
   31 H31       0.2319    -0.1594     2.1383 H      1 <0>       0.0800
   32 H32       0.7568    -1.6008     1.2356 H      1 <0>       0.0600
   33 H33       1.7647    -0.1336     1.2338 H      1 <0>       0.0600
   34 H34      -1.9605    -0.1726    -0.8702 H      1 <0>       0.0600
   35 H35      -1.4185    -1.6235     0.0069 H      1 <0>       0.0600
   36 H36      -1.9435    -0.1821     0.9097 H      1 <0>       0.0700
   37 H37       2.6845     0.3639    -1.0254 H      1 <0>       0.1900
   38 H38      -0.0619    -2.2383    -4.7209 H      1 <0>       0.1200
   39 H39       1.6255    -1.8832    -5.1623 H      1 <0>       0.1300
   40 H40       1.7189    -6.7883    -5.1226 H      1 <0>       0.1900
   41 H41       0.1280    -4.9960    -9.8280 H      1 <0>       0.4200
   42 H42      -0.8379    -6.9097   -11.4597 H      1 <0>       0.1200
   43 H43       0.9363    -5.2676   -11.9366 H      1 <0>       0.1200
   44 H44       2.1599    -6.5614   -11.9300 H      1 <0>       0.1000
   45 H45      -0.2108    -6.3618   -13.8426 H      1 <0>       0.1400
   46 H46       1.4816    -5.9890   -14.2462 H      1 <0>       0.1400
   47 H47      -0.8790    -8.5646   -13.3643 H      1 <0>       0.1300
   48 H48       0.2948    -9.9015   -13.3967 H      1 <0>       0.1400
   49 H49       1.4362    -8.9473   -11.4119 H      1 <0>       0.1000
   50 H50      -0.2795    -9.2758   -11.0663 H      1 <0>       0.1200
@<TRIPOS>BOND
   1    1    2 1
   2    1   28 1
   3    1   29 1
   4    1   30 1
   5    2    3 1
   6    2    4 1
   7    2    5 1
   8    3   31 1
   9    3   32 1
  10    3   33 1
  11    4   34 1
  12    4   35 1
  13    4   36 1
  14    5   27 1
  15    5    6 2
  16    6    7 1
  17    6   37 1
  18    7    8 2
  19    8    9 1
  20    8   27 1
  21    9   10 1
  22    9   38 1
  23    9   39 1
  24   10   11 1
  25   11   26 1
  26   11   12 2
  27   12   13 1
  28   12   40 1
  29   13   14 2
  30   14   15 1
  31   14   26 1
  32   15   16 am
  33   15   41 1
  34   16   17 2
  35   16   18 1
  36   18   25 1
  37   18   19 1
  38   18   42 1
  39   19   20 1
  40   19   43 1
  41   19   44 1
  42   20   21 1
  43   20   45 1
  44   20   46 1
  45   21   22 1
  46   21   23 1
  47   21   24 1
  48   24   25 1
  49   24   47 1
  50   24   48 1
  51   25   49 1
  52   25   50 1


@<TRIPOS>MOLECULE
CN1C=C(C2=CC=CC=C21)C3=C(C(=O)NC3=O)C4=CN(C5=CC=CC=C54)CCCSC(=N)N
  57   61    0    0    0
SMALL
USER_CHARGES
NO_NAME
@<TRIPOS>ATOM
    1 C1       -0.0178     1.4608     0.0101 C.3    1 <0>       0.0800
    2 N2        0.0021    -0.0041     0.0020 N.pl3  1 <0>      -0.4800
    3 C3        0.0078    -0.7756    -1.1193 C.2    1 <0>       0.1000
    4 C4        0.0272    -2.0937    -0.7697 C.2    1 <0>      -0.1400
    5 C5        0.0390    -3.2475    -1.6846 C.2    1 <0>      -0.0200
    6 C6        1.1165    -3.7121    -2.4297 C.2    1 <0>      -0.0400
    7 C7        2.4773    -3.1505    -2.4636 C.2    1 <0>      -0.1200
    8 C8        3.4356    -3.2757    -1.5013 C.2    1 <0>       0.0900
    9 N9        4.5635    -2.6200    -1.8895 N.pl3  1 <0>      -0.4800
   10 C10       5.7982    -2.5416    -1.1049 C.3    1 <0>       0.1200
   11 C11       5.8029    -1.2469    -0.2896 C.3    1 <0>      -0.1300
   12 C12       7.0924    -1.1650     0.5299 C.3    1 <0>      -0.1400
   13 S13       7.0980     0.3666     1.4944 S.3    1 <0>       0.0800
   14 C14       8.6482     0.2049     2.3163 C.cat  1 <0>       0.4800
   15 N15       9.3426     1.2929     2.6494 N.pl3  1 <0>      -0.7400
   16 N16       9.1265    -1.0054     2.6049 N.pl3  1 <0>      -0.7600
   17 H17       9.9799    -1.0944     3.0573 H      1 <0>       0.4300
   18 H18       8.6212    -1.7971     2.3625 H      1 <0>       0.4400
   19 C19       4.3781    -2.0403    -3.1275 C.ar   1 <0>       0.1000
   20 C20       5.1971    -1.2767    -3.9524 C.ar   1 <0>      -0.1300
   21 C21       4.7226    -0.8253    -5.1651 C.ar   1 <0>      -0.0900
   22 C22       3.4315    -1.1244    -5.5747 C.ar   1 <0>      -0.1400
   23 C23       2.6043    -1.8791    -4.7716 C.ar   1 <0>      -0.0700
   24 C24       3.0730    -2.3482    -3.5466 C.ar   1 <0>      -0.0800
   25 C25       0.6203    -4.8839    -3.1806 C.2    1 <0>       0.5600
   26 O26       1.2740    -5.5635    -3.9466 O.2    1 <0>      -0.4500
   27 N27      -0.6746    -5.0727    -2.8750 N.am   1 <0>      -0.6900
   28 C28      -1.0904    -4.1494    -1.9916 C.2    1 <0>       0.5500
   29 O29      -2.2107    -4.0648    -1.5293 O.2    1 <0>      -0.4400
   30 C30       0.0340    -2.1368     0.7032 C.ar   1 <0>      -0.0800
   31 C31       0.0519    -3.1678     1.6397 C.ar   1 <0>      -0.0700
   32 C32       0.0535    -2.8677     2.9846 C.ar   1 <0>      -0.1400
   33 C33       0.0369    -1.5466     3.4072 C.ar   1 <0>      -0.1000
   34 C34       0.0190    -0.5165     2.4917 C.ar   1 <0>      -0.1300
   35 C35       0.0236    -0.7983     1.1297 C.ar   1 <0>       0.0900
   36 H36       1.0048     1.8381     0.0023 H      1 <0>       0.0700
   37 H37      -0.5450     1.8219    -0.8730 H      1 <0>       0.0900
   38 H38      -0.5280     1.8123     0.9069 H      1 <0>       0.0900
   39 H39      -0.0015    -0.4009    -2.1322 H      1 <0>       0.1700
   40 H40       3.3174    -3.8134    -0.5721 H      1 <0>       0.1700
   41 H41       5.8549    -3.3959    -0.4304 H      1 <0>       0.1000
   42 H42       6.6566    -2.5512    -1.7765 H      1 <0>       0.1000
   43 H43       5.7461    -0.3926    -0.9640 H      1 <0>       0.0900
   44 H44       4.9444    -1.2373     0.3820 H      1 <0>       0.0900
   45 H45       7.1491    -2.0194     1.2044 H      1 <0>       0.1100
   46 H46       7.9509    -1.1746    -0.1417 H      1 <0>       0.1200
   47 H47       8.9945     2.1736     2.4394 H      1 <0>       0.4500
   48 H48      10.1960     1.2039     3.1019 H      1 <0>       0.4300
   49 H49       6.2037    -1.0375    -3.6429 H      1 <0>       0.1200
   50 H50       5.3621    -0.2327    -5.8025 H      1 <0>       0.1300
   51 H51       3.0727    -0.7638    -6.5274 H      1 <0>       0.1300
   52 H52       1.5993    -2.1099    -5.0925 H      1 <0>       0.1200
   53 H53      -1.2305    -5.7798    -3.2380 H      1 <0>       0.4300
   54 H54       0.0642    -4.1972     1.3134 H      1 <0>       0.1200
   55 H55       0.0674    -3.6649     3.7131 H      1 <0>       0.1300
   56 H56       0.0376    -1.3230     4.4638 H      1 <0>       0.1300
   57 H57       0.0062     0.5086     2.8315 H      1 <0>       0.1200
@<TRIPOS>BOND
   1    1    2 1
   2    1   36 1
   3    1   37 1
   4    1   38 1
   5    2   35 1
   6    2    3 1
   7    3    4 2
   8    3   39 1
   9    4    5 1
  10    4   30 1
  11    5   28 1
  12    5    6 2
  13    6    7 1
  14    6   25 1
  15    7   24 1
  16    7    8 2
  17    8    9 1
  18    8   40 1
  19    9   10 1
  20    9   19 1
  21   10   11 1
  22   10   41 1
  23   10   42 1
  24   11   12 1
  25   11   43 1
  26   11   44 1
  27   12   13 1
  28   12   45 1
  29   12   46 1
  30   13   14 1
  31   14   15 ar
  32   14   16 ar
  33   15   47 1
  34   15   48 1
  35   16   17 1
  36   16   18 1
  37   19   24 ar
  38   19   20 ar
  39   20   21 ar
  40   20   49 1
  41   21   22 ar
  42   21   50 1
  43   22   23 ar
  44   22   51 1
  45   23   24 ar
  46   23   52 1
  47   25   26 2
  48   25   27 am
  49   27   28 am
  50   27   53 1
  51   28   29 2
  52   30   35 ar
  53   30   31 ar
  54   31   32 ar
  55   31   54 1
  56   32   33 ar
  57   32   55 1
  58   33   34 ar
  59   33   56 1
  60   34   35 ar
  61   34   57 1


@<TRIPOS>MOLECULE
CN(C)CCCN1C=C(C2=CC=CC=C21)C3=C(C(=O)NC3=O)C4=CNC5=CC=CC=C54
56    60    1     0     0
SMALL
USER_CHARGES
@<TRIPOS>ATOM
1      C1     -0.0178    1.4648    0.0101 C.3      1 ZINC000000585151   -0.0500
2      N2      0.0021   -0.0041    0.0020 N.4      1 ZINC000000585151   -0.3900
3      H3      0.4743   -0.3295   -0.8281 H        1 ZINC000000585151    0.4300
4      C4      0.7126   -0.4907    1.1921 C.3      1 ZINC000000585151   -0.0500
5      C5     -1.3761   -0.5125    0.0124 C.3      1 ZINC000000585151   -0.0100
6      C6     -1.3584   -2.0365   -0.1216 C.3      1 ZINC000000585151   -0.1700
7      C7     -2.7938   -2.5661   -0.1108 C.3      1 ZINC000000585151    0.1200
8      N8     -2.7769   -4.0254   -0.2392 N.pl3    1 ZINC000000585151   -0.4800
9      C9     -2.9035   -4.7044   -1.4120 C.2      1 ZINC000000585151    0.0900
10     C10    -2.8450   -6.0461   -1.1745 C.2      1 ZINC000000585151   -0.1200
11     C11    -2.9420   -7.1226   -2.1745 C.2      1 ZINC000000585151   -0.0400
12     C12    -1.9598   -7.5172   -3.0754 C.2      1 ZINC000000585151   -0.0200
13     C13    -0.6116   -6.9436   -3.2227 C.2      1 ZINC000000585151   -0.1400
14     C14     0.4527   -7.1378   -2.3923 C.2      1 ZINC000000585151    0.1000
15     N15     1.5281   -6.4438   -2.8555 N.pl3    1 ZINC000000585151   -0.5900
16     C16     1.1998   -5.7682   -4.0125 C.ar     1 ZINC000000585151    0.0900
17     C17     1.9174   -4.9343   -4.8633 C.ar     1 ZINC000000585151   -0.1300
18     C18     1.3048   -4.3910   -5.9718 C.ar     1 ZINC000000585151   -0.1000
19     C19    -0.0258   -4.6668   -6.2505 C.ar     1 ZINC000000585151   -0.1400
20     C20    -0.7542   -5.4901   -5.4197 C.ar     1 ZINC000000585151   -0.0700
21     C21    -0.1459   -6.0521   -4.2996 C.ar     1 ZINC000000585151   -0.0800
22     C22    -2.5421   -8.6290   -3.8552 C.2      1 ZINC000000585151    0.5500
23     O23    -1.9835   -9.2396   -4.7446 O.2      1 ZINC000000585151   -0.4400
24     N24    -3.7924   -8.8522   -3.4165 N.am     1 ZINC000000585151   -0.6900
25     C25    -4.1007   -8.0062   -2.4191 C.2      1 ZINC000000585151    0.5600
26     O26    -5.1590   -7.9682   -1.8237 O.2      1 ZINC000000585151   -0.4500
27     C27    -2.6658   -6.2072    0.2793 C.ar     1 ZINC000000585151   -0.0800
28     C28    -2.5396   -7.3097    1.1211 C.ar     1 ZINC000000585151   -0.0700
29     C29    -2.3802   -7.1185    2.4764 C.ar     1 ZINC000000585151   -0.1300
30     C30    -2.3455   -5.8357    3.0031 C.ar     1 ZINC000000585151   -0.0900
31     C31    -2.4691   -4.7357    2.1820 C.ar     1 ZINC000000585151   -0.1300
32     C32    -2.6245   -4.9073    0.8106 C.ar     1 ZINC000000585151    0.0900
33     H33     1.0047    1.8421    0.0024 H        1 ZINC000000585151    0.1300
34     H34    -0.5450    1.8259   -0.8730 H        1 ZINC000000585151    0.1200
35     H35    -0.5280    1.8163    0.9069 H        1 ZINC000000585151    0.1200
36     H36     0.7274   -1.5806    1.1861 H        1 ZINC000000585151    0.1200
37     H37     1.7352   -0.1134    1.1844 H        1 ZINC000000585151    0.1300
38     H38     0.2024   -0.1392    2.0889 H        1 ZINC000000585151    0.1200
39     H39    -1.8584   -0.2358    0.9500 H        1 ZINC000000585151    0.1300
40     H40    -1.9290   -0.0808   -0.8218 H        1 ZINC000000585151    0.1400
41     H41    -0.8762   -2.3132   -1.0592 H        1 ZINC000000585151    0.1000
42     H42    -0.8055   -2.4683    0.7126 H        1 ZINC000000585151    0.1000
43     H43    -3.2761   -2.2894    0.8268 H        1 ZINC000000585151    0.1000
44     H44    -3.3467   -2.1344   -0.9450 H        1 ZINC000000585151    0.1000
45     H45    -3.0310   -4.2498   -2.3833 H        1 ZINC000000585151    0.1800
46     H46     0.4435   -7.7492   -1.5020 H        1 ZINC000000585151    0.1800
47     H47     2.4008   -6.4266   -2.4322 H        1 ZINC000000585151    0.4200
48     H48     2.9537   -4.7124   -4.6552 H        1 ZINC000000585151    0.1200
49     H49     1.8660   -3.7439   -6.6297 H        1 ZINC000000585151    0.1300
50     H50    -0.4933   -4.2338   -7.1225 H        1 ZINC000000585151    0.1300
51     H51    -1.7902   -5.7027   -5.6385 H        1 ZINC000000585151    0.1200
52     H52    -4.3880   -9.5325   -3.7679 H        1 ZINC000000585151    0.4300
53     H53    -2.5670   -8.3096    0.7137 H        1 ZINC000000585151    0.1200
54     H54    -2.2821   -7.9714    3.1316 H        1 ZINC000000585151    0.1300
55     H55    -2.2207   -5.6977    4.0670 H        1 ZINC000000585151    0.1300
56     H56    -2.4407   -3.7414    2.6026 H        1 ZINC000000585151    0.1200
@<TRIPOS>BOND
1     1     2     1
2     1     33    1
3     1     34    1
4     1     35    1
5     2     3     1
6     2     4     1
7     2     5     1
8     4     36    1
9     4     37    1
10    4     38    1
11    5     6     1
12    5     39    1
13    5     40    1
14    6     7     1
15    6     41    1
16    6     42    1
17    7     8     1
18    7     43    1
19    7     44    1
20    8     32    1
21    8     9     1
22    9     10    2
23    9     45    1
24    10    11    1
25    10    27    1
26    11    25    1
27    11    12    2
28    12    13    1
29    12    22    1
30    13    21    1
31    13    14    2
32    14    15    1
33    14    46    1
34    15    16    1
35    15    47    1
36    16    21    ar
37    16    17    ar
38    17    18    ar
39    17    48    1
40    18    19    ar
41    18    49    1
42    19    20    ar
43    19    50    1
44    20    21    ar
45    20    51    1
46    22    23    2
47    22    24    am
48    24    25    am
49    24    52    1
50    25    26    2
51    27    32    ar
52    27    28    ar
53    28    29    ar
54    28    53    1
55    29    30    ar
56    29    54    1
57    30    31    ar
58    30    55    1
59    31    32    ar
60    31    56    1
@<TRIPOS>SUBSTRUCTURE
1   ZINC000000585151 1     RESIDUE    1   A     ZIN   1


@<TRIPOS>MOLECULE
CN1C=C(C2=CC=CC=C21)C3=C(C(=O)NC3=O)C4=CN(C5=CC=CC=C54)CCCSC(=N)N
  57   61    0    0    0
SMALL
USER_CHARGES
NO_NAME
@<TRIPOS>ATOM
    1 C1       -0.0178     1.4608     0.0101 C.3    1 <0>       0.0800
    2 N2        0.0021    -0.0041     0.0020 N.pl3  1 <0>      -0.4800
    3 C3        0.0078    -0.7756    -1.1193 C.2    1 <0>       0.1000
    4 C4        0.0272    -2.0937    -0.7697 C.2    1 <0>      -0.1400
    5 C5        0.0390    -3.2475    -1.6846 C.2    1 <0>      -0.0200
    6 C6        1.1165    -3.7121    -2.4297 C.2    1 <0>      -0.0400
    7 C7        2.4773    -3.1505    -2.4636 C.2    1 <0>      -0.1200
    8 C8        3.4356    -3.2757    -1.5013 C.2    1 <0>       0.0900
    9 N9        4.5635    -2.6200    -1.8895 N.pl3  1 <0>      -0.4800
   10 C10       5.7982    -2.5416    -1.1049 C.3    1 <0>       0.1200
   11 C11       5.8029    -1.2469    -0.2896 C.3    1 <0>      -0.1300
   12 C12       7.0924    -1.1650     0.5299 C.3    1 <0>      -0.1400
   13 S13       7.0980     0.3666     1.4944 S.3    1 <0>       0.0800
   14 C14       8.6482     0.2049     2.3163 C.cat  1 <0>       0.4800
   15 N15       9.3426     1.2929     2.6494 N.pl3  1 <0>      -0.7400
   16 N16       9.1265    -1.0054     2.6049 N.pl3  1 <0>      -0.7600
   17 H17       9.9799    -1.0944     3.0573 H      1 <0>       0.4300
   18 H18       8.6212    -1.7971     2.3625 H      1 <0>       0.4400
   19 C19       4.3781    -2.0403    -3.1275 C.ar   1 <0>       0.1000
   20 C20       5.1971    -1.2767    -3.9524 C.ar   1 <0>      -0.1300
   21 C21       4.7226    -0.8253    -5.1651 C.ar   1 <0>      -0.0900
   22 C22       3.4315    -1.1244    -5.5747 C.ar   1 <0>      -0.1400
   23 C23       2.6043    -1.8791    -4.7716 C.ar   1 <0>      -0.0700
   24 C24       3.0730    -2.3482    -3.5466 C.ar   1 <0>      -0.0800
   25 C25       0.6203    -4.8839    -3.1806 C.2    1 <0>       0.5600
   26 O26       1.2740    -5.5635    -3.9466 O.2    1 <0>      -0.4500
   27 N27      -0.6746    -5.0727    -2.8750 N.am   1 <0>      -0.6900
   28 C28      -1.0904    -4.1494    -1.9916 C.2    1 <0>       0.5500
   29 O29      -2.2107    -4.0648    -1.5293 O.2    1 <0>      -0.4400
   30 C30       0.0340    -2.1368     0.7032 C.ar   1 <0>      -0.0800
   31 C31       0.0519    -3.1678     1.6397 C.ar   1 <0>      -0.0700
   32 C32       0.0535    -2.8677     2.9846 C.ar   1 <0>      -0.1400
   33 C33       0.0369    -1.5466     3.4072 C.ar   1 <0>      -0.1000
   34 C34       0.0190    -0.5165     2.4917 C.ar   1 <0>      -0.1300
   35 C35       0.0236    -0.7983     1.1297 C.ar   1 <0>       0.0900
   36 H36       1.0048     1.8381     0.0023 H      1 <0>       0.0700
   37 H37      -0.5450     1.8219    -0.8730 H      1 <0>       0.0900
   38 H38      -0.5280     1.8123     0.9069 H      1 <0>       0.0900
   39 H39      -0.0015    -0.4009    -2.1322 H      1 <0>       0.1700
   40 H40       3.3174    -3.8134    -0.5721 H      1 <0>       0.1700
   41 H41       5.8549    -3.3959    -0.4304 H      1 <0>       0.1000
   42 H42       6.6566    -2.5512    -1.7765 H      1 <0>       0.1000
   43 H43       5.7461    -0.3926    -0.9640 H      1 <0>       0.0900
   44 H44       4.9444    -1.2373     0.3820 H      1 <0>       0.0900
   45 H45       7.1491    -2.0194     1.2044 H      1 <0>       0.1100
   46 H46       7.9509    -1.1746    -0.1417 H      1 <0>       0.1200
   47 H47       8.9945     2.1736     2.4394 H      1 <0>       0.4500
   48 H48      10.1960     1.2039     3.1019 H      1 <0>       0.4300
   49 H49       6.2037    -1.0375    -3.6429 H      1 <0>       0.1200
   50 H50       5.3621    -0.2327    -5.8025 H      1 <0>       0.1300
   51 H51       3.0727    -0.7638    -6.5274 H      1 <0>       0.1300
   52 H52       1.5993    -2.1099    -5.0925 H      1 <0>       0.1200
   53 H53      -1.2305    -5.7798    -3.2380 H      1 <0>       0.4300
   54 H54       0.0642    -4.1972     1.3134 H      1 <0>       0.1200
   55 H55       0.0674    -3.6649     3.7131 H      1 <0>       0.1300
   56 H56       0.0376    -1.3230     4.4638 H      1 <0>       0.1300
   57 H57       0.0062     0.5086     2.8315 H      1 <0>       0.1200
@<TRIPOS>BOND
   1    1    2 1
   2    1   36 1
   3    1   37 1
   4    1   38 1
   5    2   35 1
   6    2    3 1
   7    3    4 2
   8    3   39 1
   9    4    5 1
  10    4   30 1
  11    5   28 1
  12    5    6 2
  13    6    7 1
  14    6   25 1
  15    7   24 1
  16    7    8 2
  17    8    9 1
  18    8   40 1
  19    9   10 1
  20    9   19 1
  21   10   11 1
  22   10   41 1
  23   10   42 1
  24   11   12 1
  25   11   43 1
  26   11   44 1
  27   12   13 1
  28   12   45 1
  29   12   46 1
  30   13   14 1
  31   14   15 ar
  32   14   16 ar
  33   15   47 1
  34   15   48 1
  35   16   17 1
  36   16   18 1
  37   19   24 ar
  38   19   20 ar
  39   20   21 ar
  40   20   49 1
  41   21   22 ar
  42   21   50 1
  43   22   23 ar
  44   22   51 1
  45   23   24 ar
  46   23   52 1
  47   25   26 2
  48   25   27 am
  49   27   28 am
  50   27   53 1
  51   28   29 2
  52   30   35 ar
  53   30   31 ar
  54   31   32 ar
  55   31   54 1
  56   32   33 ar
  57   32   55 1
  58   33   34 ar
  59   33   56 1
  60   34   35 ar
  61   34   57 1


@<TRIPOS>MOLECULE
CN1C=C(C2=CC=CC=C21)C3=C(C(=O)NC3=O)C4=C5CC(CCN5C6=CC=CC=C64)CN(C)C
63    68    1     0     0
SMALL
USER_CHARGES
@<TRIPOS>ATOM
1      C1     -0.0178    1.4608    0.0101 C.3      1 ZINC000000591953    0.0800
2      N2      0.0021   -0.0041    0.0020 N.pl3    1 ZINC000000591953   -0.4800
3      C3      0.0078   -0.7756   -1.1193 C.2      1 ZINC000000591953    0.0900
4      C4      0.0272   -2.0937   -0.7697 C.2      1 ZINC000000591953   -0.1400
5      C5      0.0390   -3.2475   -1.6846 C.2      1 ZINC000000591953   -0.0100
6      C6      1.1165   -3.7121   -2.4297 C.2      1 ZINC000000591953   -0.0500
7      C7      2.4773   -3.1505   -2.4636 C.2      1 ZINC000000591953   -0.1000
8      C8      2.9412   -2.1815   -3.3057 C.2      1 ZINC000000591953    0.0900
9      C9      2.1411   -1.4878   -4.3838 C.3      1 ZINC000000591953   -0.0500
10     C10     3.1187   -0.7833   -5.3320 C.3      1 ZINC000000591953   -0.1200
11     H11     3.6531   -1.5270   -5.9232 H        1 ZINC000000591953    0.1100
12     C12     2.3443    0.1511   -6.2638 C.3      1 ZINC000000591953   -0.0100
13     N13     3.2652    0.7339   -7.2488 N.4      1 ZINC000000591953   -0.3900
14     H14     4.0286    1.1865   -6.7688 H        1 ZINC000000591953    0.4200
15     C15     3.7926   -0.3290   -8.1149 C.3      1 ZINC000000591953   -0.0600
16     C16     2.5471    1.7207   -8.0665 C.3      1 ZINC000000591953   -0.0500
17     C17     4.1192    0.0290   -4.5048 C.3      1 ZINC000000591953   -0.1400
18     C18     5.0611   -0.9225   -3.7625 C.3      1 ZINC000000591953    0.1100
19     N19     4.2598   -1.9190   -3.0352 N.pl3    1 ZINC000000591953   -0.4800
20     C20     4.6888   -2.7143   -2.0082 C.ar     1 ZINC000000591953    0.1100
21     C21     5.9260   -2.8252   -1.3769 C.ar     1 ZINC000000591953   -0.1300
22     C22     6.0282   -3.7484   -0.3498 C.ar     1 ZINC000000591953   -0.0900
23     C23     4.9600   -4.5347    0.0461 C.ar     1 ZINC000000591953   -0.1400
24     C24     3.7205   -4.4444   -0.5650 C.ar     1 ZINC000000591953   -0.0600
25     C25     3.5968   -3.5156   -1.5980 C.ar     1 ZINC000000591953   -0.0800
26     C26     0.6203   -4.8839   -3.1806 C.2      1 ZINC000000591953    0.5600
27     O27     1.2740   -5.5635   -3.9466 O.2      1 ZINC000000591953   -0.4500
28     N28    -0.6746   -5.0727   -2.8750 N.am     1 ZINC000000591953   -0.6900
29     C29    -1.0904   -4.1494   -1.9916 C.2      1 ZINC000000591953    0.5500
30     O30    -2.2107   -4.0648   -1.5293 O.2      1 ZINC000000591953   -0.4400
31     C31     0.0340   -2.1368    0.7032 C.ar     1 ZINC000000591953   -0.0700
32     C32     0.0519   -3.1678    1.6397 C.ar     1 ZINC000000591953   -0.0700
33     C33     0.0535   -2.8677    2.9846 C.ar     1 ZINC000000591953   -0.1300
34     C34     0.0369   -1.5466    3.4072 C.ar     1 ZINC000000591953   -0.0900
35     C35     0.0190   -0.5165    2.4917 C.ar     1 ZINC000000591953   -0.1300
36     C36     0.0236   -0.7983    1.1297 C.ar     1 ZINC000000591953    0.1000
37     H37     1.0048    1.8381    0.0023 H        1 ZINC000000591953    0.0700
38     H38    -0.5450    1.8219   -0.8730 H        1 ZINC000000591953    0.0800
39     H39    -0.5280    1.8123    0.9069 H        1 ZINC000000591953    0.0900
40     H40    -0.0015   -0.4009   -2.1322 H        1 ZINC000000591953    0.1700
41     H41     1.5570   -2.2226   -4.9379 H        1 ZINC000000591953    0.1000
42     H42     1.4746   -0.7535   -3.9314 H        1 ZINC000000591953    0.1000
43     H43     1.5683   -0.4130   -6.7812 H        1 ZINC000000591953    0.1400
44     H44     1.8852    0.9484   -5.6793 H        1 ZINC000000591953    0.1400
45     H45     2.9678   -0.8179   -8.6334 H        1 ZINC000000591953    0.1300
46     H46     4.4759    0.1034   -8.8457 H        1 ZINC000000591953    0.1300
47     H47     4.3253   -1.0612   -7.5081 H        1 ZINC000000591953    0.1200
48     H48     2.1558    2.5093   -7.4239 H        1 ZINC000000591953    0.1200
49     H49     3.2304    2.1531   -8.7974 H        1 ZINC000000591953    0.1300
50     H50     1.7224    1.2317   -8.5850 H        1 ZINC000000591953    0.1200
51     H51     4.6999    0.6720   -5.1662 H        1 ZINC000000591953    0.0800
52     H52     3.5802    0.6427   -3.7831 H        1 ZINC000000591953    0.0900
53     H53     5.7084   -1.4277   -4.4793 H        1 ZINC000000591953    0.0800
54     H54     5.6685   -0.3568   -3.0560 H        1 ZINC000000591953    0.1000
55     H55     6.7680   -2.2184   -1.6756 H        1 ZINC000000591953    0.1300
56     H56     6.9740   -3.8590    0.1597 H        1 ZINC000000591953    0.1300
57     H57     5.0971   -5.2384    0.8538 H        1 ZINC000000591953    0.1300
58     H58     2.8893   -5.0596   -0.2537 H        1 ZINC000000591953    0.1300
59     H59    -1.2305   -5.7798   -3.2380 H        1 ZINC000000591953    0.4300
60     H60     0.0642   -4.1972    1.3134 H        1 ZINC000000591953    0.1200
61     H61     0.0674   -3.6649    3.7131 H        1 ZINC000000591953    0.1300
62     H62     0.0376   -1.3230    4.4638 H        1 ZINC000000591953    0.1300
63     H63     0.0062    0.5086    2.8315 H        1 ZINC000000591953    0.1200
@<TRIPOS>BOND
1     1     2     1
2     1     37    1
3     1     38    1
4     1     39    1
5     2     36    1
6     2     3     1
7     3     4     2
8     3     40    1
9     4     5     1
10    4     31    1
11    5     29    1
12    5     6     2
13    6     7     1
14    6     26    1
15    7     25    1
16    7     8     2
17    8     19    1
18    8     9     1
19    9     10    1
20    9     41    1
21    9     42    1
22    10    11    1
23    10    12    1
24    10    17    1
25    12    13    1
26    12    43    1
27    12    44    1
28    13    14    1
29    13    15    1
30    13    16    1
31    15    45    1
32    15    46    1
33    15    47    1
34    16    48    1
35    16    49    1
36    16    50    1
37    17    18    1
38    17    51    1
39    17    52    1
40    18    19    1
41    18    53    1
42    18    54    1
43    19    20    1
44    20    25    ar
45    20    21    ar
46    21    22    ar
47    21    55    1
48    22    23    ar
49    22    56    1
50    23    24    ar
51    23    57    1
52    24    25    ar
53    24    58    1
54    26    27    2
55    26    28    am
56    28    29    am
57    28    59    1
58    29    30    2
59    31    36    ar
60    31    32    ar
61    32    33    ar
62    32    60    1
63    33    34    ar
64    33    61    1
65    34    35    ar
66    34    62    1
67    35    36    ar
68    35    63    1
@<TRIPOS>SUBSTRUCTURE
1   ZINC000000591953 1     RESIDUE    1   A     ZIN   1


@<TRIPOS>MOLECULE
C1=CC(=C(C=C1C2=C(C(=O)C3=C(C=C(C=C3O2)O)O)O)O)O
  31   33    0    0    0
SMALL
USER_CHARGES
NO_NAME
@<TRIPOS>ATOM
    1 O1       -0.9038     1.1636    -0.0631 O.2    1 <0>      -0.5400
    2 C2       -0.5695     2.3377    -0.0199 C.2    1 <0>       0.4200
    3 C3       -1.5293     3.3587     0.0376 C.2    1 <0>      -0.4900
    4 C4       -1.1408     4.6800     0.0810 C.2    1 <0>       0.3200
    5 O5       -2.0957     5.6392     0.1448 O.3    1 <0>      -0.6800
    6 C6        0.2045     5.0679     0.0621 C.2    1 <0>      -0.1500
    7 C7        1.2046     4.1451     0.0031 C.2    1 <0>       0.1000
    8 O8        2.4995     4.5373    -0.0408 O.3    1 <0>      -0.2900
    9 C9        3.4781     3.6588     0.5261 C.3    1 <0>       0.1100
   10 C10       3.3163     3.6169     2.0238 C.ar   1 <0>      -0.1200
   11 C11       4.2964     3.0373     2.8072 C.ar   1 <0>      -0.1000
   12 C12       4.1524     2.9959     4.1819 C.ar   1 <0>      -0.1300
   13 C13       3.0242     3.5366     4.7767 C.ar   1 <0>       0.0900
   14 O14       2.8813     3.4971     6.1286 O.3    1 <0>      -0.4900
   15 C15       2.0374     4.1207     3.9878 C.ar   1 <0>       0.0900
   16 O16       0.9282     4.6533     4.5671 O.3    1 <0>      -0.4800
   17 C17       2.1903     4.1635     2.6116 C.ar   1 <0>      -0.1100
   18 C18       3.2635     2.2729    -0.0502 C.2    1 <0>       0.3500
   19 O19       4.1810     1.6140    -0.4787 O.2    1 <0>      -0.4200
   20 C20       1.8587     1.7638    -0.0605 C.2    1 <0>       0.0800
   21 O21       1.5820     0.4464    -0.1010 O.3    1 <0>      -0.4100
   22 C22       0.8543     2.7208    -0.0203 C.2    1 <0>      -0.1600
   23 H23      -2.5797     3.1077     0.0475 H      1 <0>       0.1100
   24 H24       0.4538     6.1183     0.0946 H      1 <0>       0.1300
   25 H25       4.4783     4.0113     0.2743 H      1 <0>       0.1600
   26 H26       5.1764     2.6154     2.3447 H      1 <0>       0.1300
   27 H27       4.9194     2.5418     4.7918 H      1 <0>       0.1400
   28 H28       3.2488     4.2661     6.5855 H      1 <0>       0.3900
   29 H29       1.0165     5.5875     4.8006 H      1 <0>       0.3900
   30 H30       1.4261     4.6161     1.9972 H      1 <0>       0.1600
   31 H31       2.3350    -0.1599    -0.1234 H      1 <0>       0.4000
@<TRIPOS>BOND
   1    1    2 2
   2    2   22 1
   3    2    3 1
   4    3    4 2
   5    3   23 1
   6    4    5 1
   7    4    6 1
   8    6    7 2
   9    6   24 1
  10    7   22 1
  11    7    8 1
  12    8    9 1
  13    9   10 1
  14    9   18 1
  15    9   25 1
  16   10   17 ar
  17   10   11 ar
  18   11   12 ar
  19   11   26 1
  20   12   13 ar
  21   12   27 1
  22   13   14 1
  23   13   15 ar
  24   14   28 1
  25   15   16 1
  26   15   17 ar
  27   16   29 1
  28   17   30 1
  29   18   19 2
  30   18   20 1
  31   20   21 1
  32   20   22 2
  33   21   31 1


@<TRIPOS>MOLECULE
C1=CC(=CC=C1C=CC2=CC(=CC(=C2)O)O)O
  29   30    0    0    0
SMALL
USER_CHARGES
NO_NAME
@<TRIPOS>ATOM
    1 O1       -0.0163     1.3543     0.0095 O.3    1 <0>      -0.5000
    2 C2        0.0021    -0.0041     0.0020 C.ar   1 <0>       0.1100
    3 C3        0.0057    -0.6897    -1.2060 C.ar   1 <0>      -0.1400
    4 C4        0.0244    -2.0675    -1.2186 C.ar   1 <0>      -0.0900
    5 C5        0.0397    -2.7751    -0.0132 C.ar   1 <0>      -0.0700
    6 C6        0.0601    -4.2484    -0.0213 C.2    1 <0>      -0.0900
    7 C7        0.0748    -4.9260     1.1377 C.2    1 <0>      -0.1100
    8 C8        0.0953    -6.3997     1.1296 C.ar   1 <0>      -0.0200
    9 C9        0.1053    -7.0937    -0.0826 C.ar   1 <0>      -0.1500
   10 C10       0.1250    -8.4782    -0.0849 C.ar   1 <0>       0.1300
   11 O11       0.1348    -9.1545    -1.2637 O.3    1 <0>      -0.5000
   12 C12       0.1353    -9.1763     1.1143 C.ar   1 <0>      -0.1700
   13 C13       0.1254    -8.4915     2.3212 C.ar   1 <0>       0.1300
   14 O14       0.1360    -9.1807     3.4924 O.3    1 <0>      -0.5000
   15 C15       0.1106    -7.1069     2.3341 C.ar   1 <0>      -0.1400
   16 C16       0.0359    -2.0807     1.1999 C.ar   1 <0>      -0.0900
   17 C17       0.0230    -0.7028     1.2023 C.ar   1 <0>      -0.1400
   18 H18       0.8616     1.7596     0.0033 H      1 <0>       0.3900
   19 H19      -0.0065    -0.1421    -2.1368 H      1 <0>       0.1300
   20 H20       0.0268    -2.5998    -2.1583 H      1 <0>       0.1300
   21 H21       0.0633    -4.7832    -0.9596 H      1 <0>       0.1300
   22 H22       0.0716    -4.3911     2.0760 H      1 <0>       0.1300
   23 H23       0.0973    -6.5513    -1.0164 H      1 <0>       0.1400
   24 H24       1.0209    -9.3377    -1.6047 H      1 <0>       0.3900
   25 H25       0.1507   -10.2562     1.1084 H      1 <0>       0.1400
   26 H26       1.0223    -9.3670     3.8312 H      1 <0>       0.3900
   27 H27       0.1029    -6.5748     3.2739 H      1 <0>       0.1400
   28 H28       0.0477    -2.6231     2.1337 H      1 <0>       0.1300
   29 H29       0.0204    -0.1653     2.1391 H      1 <0>       0.1300
@<TRIPOS>BOND
   1    1    2 1
   2    1   18 1
   3    2   17 ar
   4    2    3 ar
   5    3    4 ar
   6    3   19 1
   7    4    5 ar
   8    4   20 1
   9    5    6 1
  10    5   16 ar
  11    6    7 2
  12    6   21 1
  13    7    8 1
  14    7   22 1
  15    8   15 ar
  16    8    9 ar
  17    9   10 ar
  18    9   23 1
  19   10   11 1
  20   10   12 ar
  21   11   24 1
  22   12   13 ar
  23   12   25 1
  24   13   14 1
  25   13   15 ar
  26   14   26 1
  27   15   27 1
  28   16   17 ar
  29   16   28 1
  30   17   29 1


@<TRIPOS>MOLECULE
CN1C=C(C2=CC=CC=C21)C3=C(C(=O)NC3=O)C4=CN(C5=CC=CC=C54)CCCSC(=N)N
  57   61    0    0    0
SMALL
USER_CHARGES
NO_NAME
@<TRIPOS>ATOM
    1 C1       -0.0178     1.4608     0.0101 C.3    1 <0>       0.0800
    2 N2        0.0021    -0.0041     0.0020 N.pl3  1 <0>      -0.4800
    3 C3        0.0078    -0.7756    -1.1193 C.2    1 <0>       0.1000
    4 C4        0.0272    -2.0937    -0.7697 C.2    1 <0>      -0.1400
    5 C5        0.0390    -3.2475    -1.6846 C.2    1 <0>      -0.0200
    6 C6        1.1165    -3.7121    -2.4297 C.2    1 <0>      -0.0400
    7 C7        2.4773    -3.1505    -2.4636 C.2    1 <0>      -0.1200
    8 C8        3.4356    -3.2757    -1.5013 C.2    1 <0>       0.0900
    9 N9        4.5635    -2.6200    -1.8895 N.pl3  1 <0>      -0.4800
   10 C10       5.7982    -2.5416    -1.1049 C.3    1 <0>       0.1200
   11 C11       5.8029    -1.2469    -0.2896 C.3    1 <0>      -0.1300
   12 C12       7.0924    -1.1650     0.5299 C.3    1 <0>      -0.1400
   13 S13       7.0980     0.3666     1.4944 S.3    1 <0>       0.0800
   14 C14       8.6482     0.2049     2.3163 C.cat  1 <0>       0.4800
   15 N15       9.3426     1.2929     2.6494 N.pl3  1 <0>      -0.7400
   16 N16       9.1265    -1.0054     2.6049 N.pl3  1 <0>      -0.7600
   17 H17       9.9799    -1.0944     3.0573 H      1 <0>       0.4300
   18 H18       8.6212    -1.7971     2.3625 H      1 <0>       0.4400
   19 C19       4.3781    -2.0403    -3.1275 C.ar   1 <0>       0.1000
   20 C20       5.1971    -1.2767    -3.9524 C.ar   1 <0>      -0.1300
   21 C21       4.7226    -0.8253    -5.1651 C.ar   1 <0>      -0.0900
   22 C22       3.4315    -1.1244    -5.5747 C.ar   1 <0>      -0.1400
   23 C23       2.6043    -1.8791    -4.7716 C.ar   1 <0>      -0.0700
   24 C24       3.0730    -2.3482    -3.5466 C.ar   1 <0>      -0.0800
   25 C25       0.6203    -4.8839    -3.1806 C.2    1 <0>       0.5600
   26 O26       1.2740    -5.5635    -3.9466 O.2    1 <0>      -0.4500
   27 N27      -0.6746    -5.0727    -2.8750 N.am   1 <0>      -0.6900
   28 C28      -1.0904    -4.1494    -1.9916 C.2    1 <0>       0.5500
   29 O29      -2.2107    -4.0648    -1.5293 O.2    1 <0>      -0.4400
   30 C30       0.0340    -2.1368     0.7032 C.ar   1 <0>      -0.0800
   31 C31       0.0519    -3.1678     1.6397 C.ar   1 <0>      -0.0700
   32 C32       0.0535    -2.8677     2.9846 C.ar   1 <0>      -0.1400
   33 C33       0.0369    -1.5466     3.4072 C.ar   1 <0>      -0.1000
   34 C34       0.0190    -0.5165     2.4917 C.ar   1 <0>      -0.1300
   35 C35       0.0236    -0.7983     1.1297 C.ar   1 <0>       0.0900
   36 H36       1.0048     1.8381     0.0023 H      1 <0>       0.0700
   37 H37      -0.5450     1.8219    -0.8730 H      1 <0>       0.0900
   38 H38      -0.5280     1.8123     0.9069 H      1 <0>       0.0900
   39 H39      -0.0015    -0.4009    -2.1322 H      1 <0>       0.1700
   40 H40       3.3174    -3.8134    -0.5721 H      1 <0>       0.1700
   41 H41       5.8549    -3.3959    -0.4304 H      1 <0>       0.1000
   42 H42       6.6566    -2.5512    -1.7765 H      1 <0>       0.1000
   43 H43       5.7461    -0.3926    -0.9640 H      1 <0>       0.0900
   44 H44       4.9444    -1.2373     0.3820 H      1 <0>       0.0900
   45 H45       7.1491    -2.0194     1.2044 H      1 <0>       0.1100
   46 H46       7.9509    -1.1746    -0.1417 H      1 <0>       0.1200
   47 H47       8.9945     2.1736     2.4394 H      1 <0>       0.4500
   48 H48      10.1960     1.2039     3.1019 H      1 <0>       0.4300
   49 H49       6.2037    -1.0375    -3.6429 H      1 <0>       0.1200
   50 H50       5.3621    -0.2327    -5.8025 H      1 <0>       0.1300
   51 H51       3.0727    -0.7638    -6.5274 H      1 <0>       0.1300
   52 H52       1.5993    -2.1099    -5.0925 H      1 <0>       0.1200
   53 H53      -1.2305    -5.7798    -3.2380 H      1 <0>       0.4300
   54 H54       0.0642    -4.1972     1.3134 H      1 <0>       0.1200
   55 H55       0.0674    -3.6649     3.7131 H      1 <0>       0.1300
   56 H56       0.0376    -1.3230     4.4638 H      1 <0>       0.1300
   57 H57       0.0062     0.5086     2.8315 H      1 <0>       0.1200
@<TRIPOS>BOND
   1    1    2 1
   2    1   36 1
   3    1   37 1
   4    1   38 1
   5    2   35 1
   6    2    3 1
   7    3    4 2
   8    3   39 1
   9    4    5 1
  10    4   30 1
  11    5   28 1
  12    5    6 2
  13    6    7 1
  14    6   25 1
  15    7   24 1
  16    7    8 2
  17    8    9 1
  18    8   40 1
  19    9   10 1
  20    9   19 1
  21   10   11 1
  22   10   41 1
  23   10   42 1
  24   11   12 1
  25   11   43 1
  26   11   44 1
  27   12   13 1
  28   12   45 1
  29   12   46 1
  30   13   14 1
  31   14   15 ar
  32   14   16 ar
  33   15   47 1
  34   15   48 1
  35   16   17 1
  36   16   18 1
  37   19   24 ar
  38   19   20 ar
  39   20   21 ar
  40   20   49 1
  41   21   22 ar
  42   21   50 1
  43   22   23 ar
  44   22   51 1
  45   23   24 ar
  46   23   52 1
  47   25   26 2
  48   25   27 am
  49   27   28 am
  50   27   53 1
  51   28   29 2
  52   30   35 ar
  53   30   31 ar
  54   31   32 ar
  55   31   54 1
  56   32   33 ar
  57   32   55 1
  58   33   34 ar
  59   33   56 1
  60   34   35 ar
  61   34   57 1


@<TRIPOS>MOLECULE
CC(=O)NCCC1=CNC2=C1C=C(C=C2)OC
  33   34    0    0    0
SMALL
USER_CHARGES
NO_NAME
@<TRIPOS>ATOM
    1 C1       -0.0173     1.4248     0.0099 C.3    1 <0>       0.0300
    2 O2        0.0021    -0.0041     0.0020 O.3    1 <0>      -0.3200
    3 C3       -1.2011    -0.6379     0.0101 C.ar   1 <0>       0.1000
    4 C4       -2.3771     0.1072     0.0195 C.ar   1 <0>      -0.1800
    5 C5       -3.6040    -0.5186     0.0273 C.ar   1 <0>      -0.0900
    6 C6       -3.6760    -1.9073     0.0258 C.ar   1 <0>       0.0600
    7 N7       -4.7263    -2.8010     0.0320 N.pl3  1 <0>      -0.5900
    8 C8       -4.2463    -4.0820     0.0268 C.2    1 <0>       0.0700
    9 C9       -2.9040    -4.0680     0.0173 C.2    1 <0>      -0.1800
   10 C10      -1.9953    -5.2702     0.0084 C.3    1 <0>      -0.0500
   11 C11      -1.5768    -5.6038     1.4417 C.3    1 <0>       0.1200
   12 N12      -0.6935    -6.7725     1.4331 N.am   1 <0>      -0.7300
   13 C13      -0.1974    -7.2508     2.5913 C.2    1 <0>       0.5100
   14 C14       0.7113    -8.4531     2.5824 C.3    1 <0>      -0.1700
   15 O15      -0.4822    -6.7138     3.6407 O.2    1 <0>      -0.5500
   16 C16      -2.4897    -2.6629     0.0163 C.ar   1 <0>      -0.0600
   17 C17      -1.2514    -2.0177     0.0032 C.ar   1 <0>      -0.1100
   18 H18       1.0053     1.8021     0.0021 H      1 <0>       0.1000
   19 H19      -0.5445     1.7859    -0.8732 H      1 <0>       0.0500
   20 H20      -0.5275     1.7763     0.9067 H      1 <0>       0.0500
   21 H21      -2.3269     1.1860     0.0211 H      1 <0>       0.1300
   22 H22      -4.5100     0.0692     0.0350 H      1 <0>       0.1200
   23 H23      -5.6652    -2.5575     0.0393 H      1 <0>       0.4200
   24 H24      -4.8570    -4.9728     0.0298 H      1 <0>       0.1700
   25 H25      -2.5225    -6.1209    -0.4235 H      1 <0>       0.0800
   26 H26      -1.1091    -5.0514    -0.5873 H      1 <0>       0.0800
   27 H27      -1.0497    -4.7532     1.8736 H      1 <0>       0.0700
   28 H28      -2.4631    -5.8226     2.0374 H      1 <0>       0.0700
   29 H29      -0.4657    -7.2021     0.5937 H      1 <0>       0.4000
   30 H30       1.7464    -8.1254     2.4857 H      1 <0>       0.0900
   31 H31       0.5909    -9.0064     3.5137 H      1 <0>       0.0900
   32 H32       0.4539    -9.0968     1.7413 H      1 <0>       0.0800
   33 H33      -0.3384    -2.5946    -0.0096 H      1 <0>       0.1300
@<TRIPOS>BOND
   1    1    2 1
   2    1   18 1
   3    1   19 1
   4    1   20 1
   5    2    3 1
   6    3   17 ar
   7    3    4 ar
   8    4    5 ar
   9    4   21 1
  10    5    6 ar
  11    5   22 1
  12    6   16 ar
  13    6    7 1
  14    7    8 1
  15    7   23 1
  16    8    9 2
  17    8   24 1
  18    9   10 1
  19    9   16 1
  20   10   11 1
  21   10   25 1
  22   10   26 1
  23   11   12 1
  24   11   27 1
  25   11   28 1
  26   12   13 am
  27   12   29 1
  28   13   14 1
  29   13   15 2
  30   14   30 1
  31   14   31 1
  32   14   32 1
  33   16   17 ar
  34   17   33 1


@<TRIPOS>MOLECULE
OC1=CC=C(/C=C/C2=CC(O)=CC(O)=C2)C=C1
  29   30    0    0    0
SMALL
USER_CHARGES
NO_NAME
@<TRIPOS>ATOM
    1 O1       -0.0163     1.3543     0.0095 O.3    1 <0>      -0.5000
    2 C2        0.0021    -0.0041     0.0020 C.ar   1 <0>       0.1100
    3 C3        0.0057    -0.6897    -1.2060 C.ar   1 <0>      -0.1400
    4 C4        0.0244    -2.0675    -1.2186 C.ar   1 <0>      -0.0900
    5 C5        0.0397    -2.7751    -0.0132 C.ar   1 <0>      -0.0700
    6 C6        0.0601    -4.2484    -0.0213 C.2    1 <0>      -0.0900
    7 C7        0.0748    -4.9260     1.1377 C.2    1 <0>      -0.1100
    8 C8        0.0953    -6.3997     1.1296 C.ar   1 <0>      -0.0200
    9 C9        0.1053    -7.0937    -0.0826 C.ar   1 <0>      -0.1500
   10 C10       0.1250    -8.4782    -0.0849 C.ar   1 <0>       0.1300
   11 O11       0.1348    -9.1545    -1.2637 O.3    1 <0>      -0.5000
   12 C12       0.1353    -9.1763     1.1143 C.ar   1 <0>      -0.1700
   13 C13       0.1254    -8.4915     2.3212 C.ar   1 <0>       0.1300
   14 O14       0.1360    -9.1807     3.4924 O.3    1 <0>      -0.5000
   15 C15       0.1106    -7.1069     2.3341 C.ar   1 <0>      -0.1400
   16 C16       0.0359    -2.0807     1.1999 C.ar   1 <0>      -0.0900
   17 C17       0.0230    -0.7028     1.2023 C.ar   1 <0>      -0.1400
   18 H18       0.8616     1.7596     0.0033 H      1 <0>       0.3900
   19 H19      -0.0065    -0.1421    -2.1368 H      1 <0>       0.1300
   20 H20       0.0268    -2.5998    -2.1583 H      1 <0>       0.1300
   21 H21       0.0633    -4.7832    -0.9596 H      1 <0>       0.1300
   22 H22       0.0716    -4.3911     2.0760 H      1 <0>       0.1300
   23 H23       0.0973    -6.5513    -1.0164 H      1 <0>       0.1400
   24 H24       1.0209    -9.3377    -1.6047 H      1 <0>       0.3900
   25 H25       0.1507   -10.2562     1.1084 H      1 <0>       0.1400
   26 H26       1.0223    -9.3670     3.8312 H      1 <0>       0.3900
   27 H27       0.1029    -6.5748     3.2739 H      1 <0>       0.1400
   28 H28       0.0477    -2.6231     2.1337 H      1 <0>       0.1300
   29 H29       0.0204    -0.1653     2.1391 H      1 <0>       0.1300
@<TRIPOS>BOND
   1    1    2 1
   2    1   18 1
   3    2   17 ar
   4    2    3 ar
   5    3    4 ar
   6    3   19 1
   7    4    5 ar
   8    4   20 1
   9    5    6 1
  10    5   16 ar
  11    6    7 2
  12    6   21 1
  13    7    8 1
  14    7   22 1
  15    8   15 ar
  16    8    9 ar
  17    9   10 ar
  18    9   23 1
  19   10   11 1
  20   10   12 ar
  21   11   24 1
  22   12   13 ar
  23   12   25 1
  24   13   14 1
  25   13   15 ar
  26   14   26 1
  27   15   27 1
  28   16   17 ar
  29   16   28 1
  30   17   29 1


@<TRIPOS>MOLECULE
CCC(C1=NC2=C(C(=CC=C2)F)C(=O)N1C3=CC=CC=C3)NC4=NC=NC5=C4NC=N5
49    53    1     0     0
SMALL
USER_CHARGES
@<TRIPOS>ATOM
1      C1      0.3042    0.3193    2.3445 C.3      1 ZINC000013986658   -0.1400
2      C2      0.4079   -1.0392    1.6484 C.3      1 ZINC000013986658   -0.1300
3      C3      0.5351   -0.8301    0.1381 C.3      1 ZINC000013986658    0.2100
4      H4      1.3784   -0.1708   -0.0676 H        1 ZINC000013986658    0.1300
5      N5     -0.6955   -0.2240   -0.3763 N.pl3    1 ZINC000013986658   -0.7000
6      C6     -0.8608    1.1510   -0.3338 C.ar     1 ZINC000013986658    0.4800
7      C7     -2.0294    1.7444   -0.8143 C.ar     1 ZINC000013986658   -0.1200
8      N8     -3.1977    1.2858   -1.3855 N.pl3    1 ZINC000013986658   -0.5700
9      C9     -3.9674    2.3673   -1.6429 C.2      1 ZINC000013986658    0.3000
10     N10    -3.3521    3.4546   -1.2694 N.2      1 ZINC000013986658   -0.4900
11     C11    -2.1502    3.1424   -0.7492 C.ar     1 ZINC000013986658    0.3200
12     N12    -1.1419    3.8495   -0.2294 N.ar     1 ZINC000013986658   -0.5200
13     C13    -0.0599    3.2465    0.2112 C.ar     1 ZINC000013986658    0.3400
14     N14     0.0885    1.9349    0.1709 N.ar     1 ZINC000013986658   -0.5700
15     C15     0.7603   -2.1591   -0.5358 C.2      1 ZINC000013986658    0.4100
16     N16    -0.2750   -2.8886   -0.8212 N.2      1 ZINC000013986658   -0.5200
17     C17    -0.1488   -4.0957   -1.4277 C.ar     1 ZINC000013986658    0.1800
18     C18    -1.2611   -4.8801   -1.7351 C.ar     1 ZINC000013986658   -0.1200
19     C19    -1.0882   -6.1000   -2.3518 C.ar     1 ZINC000013986658   -0.0400
20     C20     0.1798   -6.5620   -2.6728 C.ar     1 ZINC000013986658   -0.1700
21     C21     1.2975   -5.8054   -2.3790 C.ar     1 ZINC000013986658    0.1800
22     F22     2.5300   -6.2603   -2.6940 F        1 ZINC000013986658   -0.1100
23     C23     1.1430   -4.5667   -1.7549 C.ar     1 ZINC000013986658   -0.2400
24     C24     2.2931   -3.7177   -1.4183 C.2      1 ZINC000013986658    0.5500
25     O25     3.4317   -4.0654   -1.6730 O.2      1 ZINC000013986658   -0.4700
26     N26     2.0381   -2.5311   -0.8193 N.am     1 ZINC000013986658   -0.4900
27     C27     3.0997   -1.6837   -0.4779 C.ar     1 ZINC000013986658    0.0900
28     C28     3.5371   -0.7197   -1.3766 C.ar     1 ZINC000013986658   -0.1000
29     C29     4.5838    0.1148   -1.0367 C.ar     1 ZINC000013986658   -0.1000
30     C30     5.1961   -0.0089    0.1970 C.ar     1 ZINC000013986658   -0.0900
31     C31     4.7631   -0.9682    1.0939 C.ar     1 ZINC000013986658   -0.1000
32     C32     3.7131   -1.8019    0.7623 C.ar     1 ZINC000013986658   -0.1000
33     H33     1.1986    0.9052    2.1328 H        1 ZINC000013986658    0.0700
34     H34    -0.5736    0.8503    1.9760 H        1 ZINC000013986658    0.0500
35     H35     0.2136    0.1703    3.4204 H        1 ZINC000013986658    0.0500
36     H36     1.2857   -1.5702    2.0169 H        1 ZINC000013986658    0.0700
37     H37    -0.4865   -1.6251    1.8600 H        1 ZINC000013986658    0.0700
38     H38    -1.3945   -0.7854   -0.7466 H        1 ZINC000013986658    0.4200
39     H39    -3.4247    0.3607   -1.5686 H        1 ZINC000013986658    0.4300
40     H40    -4.9488    2.3352   -2.0924 H        1 ZINC000013986658    0.2300
41     H41     0.7367    3.8467    0.6254 H        1 ZINC000013986658    0.2000
42     H42    -2.2539   -4.5324   -1.4903 H        1 ZINC000013986658    0.1500
43     H43    -1.9513   -6.7048   -2.5880 H        1 ZINC000013986658    0.1500
44     H44     0.2940   -7.5211   -3.1560 H        1 ZINC000013986658    0.1500
45     H45     3.0595   -0.6228   -2.3404 H        1 ZINC000013986658    0.1300
46     H46     4.9247    0.8645   -1.7354 H        1 ZINC000013986658    0.1400
47     H47     6.0144    0.6448    0.4604 H        1 ZINC000013986658    0.1300
48     H48     5.2438   -1.0628    2.0564 H        1 ZINC000013986658    0.1400
49     H49     3.3751   -2.5506    1.4634 H        1 ZINC000013986658    0.1300
@<TRIPOS>BOND
1     1     2     1
2     1     33    1
3     1     34    1
4     1     35    1
5     2     3     1
6     2     36    1
7     2     37    1
8     3     4     1
9     3     5     1
10    3     15    1
11    5     6     1
12    5     38    1
13    6     14    ar
14    6     7     ar
15    7     11    ar
16    7     8     1
17    8     9     1
18    8     39    1
19    9     10    2
20    9     40    1
21    10    11    1
22    11    12    ar
23    12    13    ar
24    13    14    ar
25    13    41    1
26    15    26    1
27    15    16    2
28    16    17    1
29    17    23    ar
30    17    18    ar
31    18    19    ar
32    18    42    1
33    19    20    ar
34    19    43    1
35    20    21    ar
36    20    44    1
37    21    22    1
38    21    23    ar
39    23    24    1
40    24    25    2
41    24    26    am
42    26    27    1
43    27    32    ar
44    27    28    ar
45    28    29    ar
46    28    45    1
47    29    30    ar
48    29    46    1
49    30    31    ar
50    30    47    1
51    31    32    ar
52    31    48    1
53    32    49    1
@<TRIPOS>SUBSTRUCTURE
1   ZINC000013986658 1     RESIDUE    1   A     ZIN   1


@<TRIPOS>MOLECULE
CN1C=NC2=C1C(=O)N(C(=O)N2C)C
  24   25    0    0    0
SMALL
USER_CHARGES
NO_NAME
@<TRIPOS>ATOM
    1 C1       -0.0178     1.4608     0.0101 C.3    1 <0>       0.0700
    2 N2        0.0021    -0.0041     0.0020 N.pl3  1 <0>      -0.4100
    3 C3        0.0085    -0.7996    -1.0853 C.2    1 <0>       0.2700
    4 N4        0.0275    -2.0544    -0.7142 N.2    1 <0>      -0.5000
    5 C5        0.0343    -2.1318     0.6190 C.2    1 <0>       0.3200
    6 C6        0.0238    -0.8312     1.1071 C.2    1 <0>      -0.1600
    7 C7        0.0280    -0.6203     2.5028 C.2    1 <0>       0.6000
    8 O8        0.0186     0.5105     2.9551 O.2    1 <0>      -0.5100
    9 N9        0.0421    -1.6862     3.3301 N.am   1 <0>      -0.5500
   10 C10       0.0460    -1.4744     4.7797 C.3    1 <0>       0.0800
   11 C11       0.0520    -2.9394     2.8441 C.2    1 <0>       0.7100
   12 O12       0.0642    -3.8758     3.6199 O.2    1 <0>      -0.5300
   13 N13       0.0527    -3.1841     1.5201 N.am   1 <0>      -0.5100
   14 C14       0.0633    -4.5652     1.0317 C.3    1 <0>       0.0900
   15 H15       1.0048     1.8381     0.0023 H      1 <0>       0.0900
   16 H16      -0.5450     1.8219    -0.8730 H      1 <0>       0.1000
   17 H17      -0.5280     1.8123     0.9069 H      1 <0>       0.1000
   18 H18      -0.0012    -0.4540    -2.1085 H      1 <0>       0.2300
   19 H19      -0.9806    -1.4321     5.1435 H      1 <0>       0.0800
   20 H20       0.5701    -2.2973     5.2657 H      1 <0>       0.1000
   21 H21       0.5515    -0.5362     5.0084 H      1 <0>       0.0900
   22 H22       0.0696    -5.2504     1.8794 H      1 <0>       0.1000
   23 H23      -0.8258    -4.7436     0.4269 H      1 <0>       0.0800
   24 H24       0.9541    -4.7293     0.4252 H      1 <0>       0.0800
@<TRIPOS>BOND
   1    1    2 1
   2    1   15 1
   3    1   16 1
   4    1   17 1
   5    2    6 1
   6    2    3 1
   7    3    4 2
   8    3   18 1
   9    4    5 1
  10    5   13 1
  11    5    6 2
  12    6    7 1
  13    7    8 2
  14    7    9 am
  15    9   10 1
  16    9   11 am
  17   10   19 1
  18   10   20 1
  19   10   21 1
  20   11   12 2
  21   11   13 am
  22   13   14 1
  23   14   22 1
  24   14   23 1
  25   14   24 1


@<TRIPOS>MOLECULE
C1=CC=C(C=C1)C(C2=CC=CC=C2)C(=O)NC(C(Cl)(Cl)Cl)NC(=S)NC3=CC(=C(C=C3)F)[N+](=O)[O-]
53    55    1     0     0
SMALL
USER_CHARGES
@<TRIPOS>ATOM
1      O1      0.9213   -0.5095   -0.6783 O.2      1 ZINC000016052819   -0.4600
2      C2      0.5284    0.6352   -0.7563 C.2      1 ZINC000016052819    0.5200
3      N3      1.3508    1.6533   -0.4343 N.am     1 ZINC000016052819   -0.7300
4      C4      2.7193    1.3772    0.0097 C.3      1 ZINC000016052819    0.3600
5      H5      2.9788    0.3465   -0.2322 H        1 ZINC000016052819    0.2000
6      N6      2.8124    1.5770    1.4581 N.am     1 ZINC000016052819   -0.6900
7      C7      2.8754    0.5127    2.2825 C.2      1 ZINC000016052819    0.5500
8      S8      2.8467   -1.0728    1.6373 S.2      1 ZINC000016052819   -0.5300
9      N9      2.9611    0.6966    3.6149 N.am     1 ZINC000016052819   -0.6300
10     C10     2.9349   -0.4063    4.4769 C.ar     1 ZINC000016052819    0.1200
11     C11     3.7001   -1.5293    4.1923 C.ar     1 ZINC000016052819    0.0100
12     C12     3.6729   -2.6165    5.0441 C.ar     1 ZINC000016052819   -0.1500
13     C13     2.8832   -2.5868    6.1809 C.ar     1 ZINC000016052819    0.1900
14     F14     2.8579   -3.6511    7.0127 F        1 ZINC000016052819   -0.1000
15     C15     2.1194   -1.4674    6.4669 C.ar     1 ZINC000016052819   -0.0800
16     N16     1.2765   -1.4382    7.6832 N.pl3    1 ZINC000016052819    0.0300
17     O17     0.6046   -0.4540    7.9351 O.2      1 ZINC000016052819   -0.1600
18     O18     1.2546   -2.3985    8.4322 O.2      1 ZINC000016052819   -0.1400
19     C19     2.1479   -0.3764    5.6208 C.ar     1 ZINC000016052819   -0.0300
20     C20     3.6870    2.3267   -0.6994 C.3      1 ZINC000016052819    0.1100
21     Cl21    3.2577    4.0315   -0.2991 Cl       1 ZINC000016052819   -0.0900
22     Cl22    5.3712    1.9868   -0.1529 Cl       1 ZINC000016052819   -0.0600
23     Cl23    3.5724    2.0807   -2.4818 Cl       1 ZINC000016052819   -0.0400
24     C24    -0.8773    0.9196   -1.2190 C.3      1 ZINC000016052819   -0.0200
25     C25    -0.8345    1.7674   -2.4642 C.ar     1 ZINC000016052819   -0.0800
26     C26     0.0718    1.4775   -3.4669 C.ar     1 ZINC000016052819   -0.1100
27     C27     0.1111    2.2552   -4.6091 C.ar     1 ZINC000016052819   -0.1100
28     C28    -0.7561    3.3226   -4.7487 C.ar     1 ZINC000016052819   -0.1100
29     C29    -1.6630    3.6120   -3.7463 C.ar     1 ZINC000016052819   -0.1200
30     C30    -1.7052    2.8317   -2.6060 C.ar     1 ZINC000016052819   -0.1100
31     C31    -1.5796   -0.3794   -1.5197 C.ar     1 ZINC000016052819   -0.0700
32     C32    -1.1329   -1.1839   -2.5513 C.ar     1 ZINC000016052819   -0.0800
33     C33    -1.7771   -2.3755   -2.8271 C.ar     1 ZINC000016052819   -0.1200
34     C34    -2.8677   -2.7627   -2.0711 C.ar     1 ZINC000016052819   -0.1100
35     C35    -3.3139   -1.9586   -1.0390 C.ar     1 ZINC000016052819   -0.1200
36     C36    -2.6670   -0.7691   -0.7604 C.ar     1 ZINC000016052819   -0.1100
37     H37     1.0366    2.5689   -0.4967 H        1 ZINC000016052819    0.4100
38     H38     2.8287    2.4754    1.8236 H        1 ZINC000016052819    0.4000
39     H39     3.0409    1.5931    3.9767 H        1 ZINC000016052819    0.4100
40     H40     4.3160   -1.5530    3.3055 H        1 ZINC000016052819    0.1800
41     H41     4.2677   -3.4903    4.8229 H        1 ZINC000016052819    0.1700
42     H42     1.5522    0.4963    5.8441 H        1 ZINC000016052819    0.1600
43     H43    -1.4171    1.4516   -0.4356 H        1 ZINC000016052819    0.1100
44     H44     0.7493    0.6436   -3.3579 H        1 ZINC000016052819    0.1200
45     H45     0.8196    2.0291   -5.3922 H        1 ZINC000016052819    0.1200
46     H46    -0.7249    3.9306   -5.6407 H        1 ZINC000016052819    0.1200
47     H47    -2.3403    4.4461   -3.8552 H        1 ZINC000016052819    0.1300
48     H48    -2.4137    3.0577   -1.8229 H        1 ZINC000016052819    0.1200
49     H49    -0.2809   -0.8814   -3.1419 H        1 ZINC000016052819    0.1200
50     H50    -1.4286   -3.0037   -3.6335 H        1 ZINC000016052819    0.1200
51     H51    -3.3715   -3.6933   -2.2871 H        1 ZINC000016052819    0.1200
52     H52    -4.1662   -2.2610   -0.4486 H        1 ZINC000016052819    0.1200
53     H53    -3.0156   -0.1409    0.0459 H        1 ZINC000016052819    0.1200
@<TRIPOS>BOND
1     1     2     2
2     2     3     am
3     2     24    1
4     3     4     1
5     3     37    1
6     4     5     1
7     4     6     1
8     4     20    1
9     6     7     am
10    6     38    1
11    7     8     2
12    7     9     am
13    9     10    1
14    9     39    1
15    10    19    ar
16    10    11    ar
17    11    12    ar
18    11    40    1
19    12    13    ar
20    12    41    1
21    13    14    1
22    13    15    ar
23    15    16    1
24    15    19    ar
25    16    17    2
26    16    18    2
27    19    42    1
28    20    21    1
29    20    22    1
30    20    23    1
31    24    25    1
32    24    31    1
33    24    43    1
34    25    30    ar
35    25    26    ar
36    26    27    ar
37    26    44    1
38    27    28    ar
39    27    45    1
40    28    29    ar
41    28    46    1
42    29    30    ar
43    29    47    1
44    30    48    1
45    31    36    ar
46    31    32    ar
47    32    33    ar
48    32    49    1
49    33    34    ar
50    33    50    1
51    34    35    ar
52    34    51    1
53    35    36    ar
54    35    52    1
55    36    53    1
@<TRIPOS>SUBSTRUCTURE
1   ZINC000016052819 1     RESIDUE    1   A     ZIN   1


@<TRIPOS>MOLECULE
CC(C)(C#N)C1=CC=C(C=C1)N2C3=C4C=C(C=CC4=NC=C3N(C2=O)C)C5=CC6=CC=CC=C6N=C5
59    64    1     0     0
SMALL
USER_CHARGES
@<TRIPOS>ATOM
1      C1      0.6404    1.3557    0.1409 C.3      1 ZINC000024760115    0.1000
2      N2      0.2763   -0.0618    0.0741 N.am     1 ZINC000024760115   -0.5200
3      C3      0.4383   -0.8693   -0.9920 C.2      1 ZINC000024760115    0.6800
4      O4      0.9138   -0.5349   -2.0611 O.2      1 ZINC000024760115   -0.5300
5      N5     -0.0075   -2.1044   -0.6909 N.am     1 ZINC000024760115   -0.4800
6      C6     -0.0005   -3.2101   -1.5512 C.ar     1 ZINC000024760115    0.1300
7      C7     -1.0898   -3.4565   -2.3762 C.ar     1 ZINC000024760115   -0.0900
8      C8     -1.0798   -4.5471   -3.2236 C.ar     1 ZINC000024760115   -0.1000
9      C9      0.0137   -5.3932   -3.2509 C.ar     1 ZINC000024760115   -0.0600
10     C10     0.0214   -6.5823   -4.1767 C.3      1 ZINC000024760115    0.0800
11     C11     1.3359   -7.3478   -4.0127 C.3      1 ZINC000024760115   -0.1500
12     C12    -1.1513   -7.5032   -3.8338 C.3      1 ZINC000024760115   -0.1400
13     C13    -0.1076   -6.1212   -5.5687 C.1      1 ZINC000024760115    0.2100
14     N14    -0.2071   -5.7654   -6.6429 N.1      1 ZINC000024760115   -0.4200
15     C15     1.1002   -5.1502   -2.4309 C.ar     1 ZINC000024760115   -0.1000
16     C16     1.0982   -4.0585   -1.5848 C.ar     1 ZINC000024760115   -0.1000
17     C17    -0.4725   -2.0960    0.6110 C.ar     1 ZINC000024760115    0.1400
18     C18    -0.2911   -0.8082    1.1037 C.ar     1 ZINC000024760115    0.0200
19     C19    -0.6773   -0.5118    2.4106 C.ar     1 ZINC000024760115    0.1700
20     N20    -1.2098   -1.4223    3.1909 N.ar     1 ZINC000024760115   -0.4600
21     C21    -1.4117   -2.6796    2.7790 C.ar     1 ZINC000024760115    0.1300
22     C22    -1.9853   -3.6328    3.6389 C.ar     1 ZINC000024760115   -0.0800
23     C23    -2.1859   -4.9061    3.2096 C.ar     1 ZINC000024760115   -0.0900
24     C24    -1.8274   -5.2929    1.9093 C.ar     1 ZINC000024760115   -0.0300
25     C25    -2.0571   -6.6894    1.4658 C.ar     1 ZINC000024760115   -0.1000
26     C26    -1.6015   -7.1158    0.2081 C.ar     1 ZINC000024760115    0.1400
27     N27    -1.7905   -8.3418   -0.2095 N.ar     1 ZINC000024760115   -0.4600
28     C28    -2.4257   -9.2489    0.5401 C.ar     1 ZINC000024760115    0.1300
29     C29    -2.6187  -10.5613    0.0747 C.ar     1 ZINC000024760115   -0.0900
30     C30    -3.2679  -11.4674    0.8557 C.ar     1 ZINC000024760115   -0.1000
31     C31    -3.7484  -11.1176    2.1161 C.ar     1 ZINC000024760115   -0.1100
32     C32    -3.5810   -9.8570    2.6018 C.ar     1 ZINC000024760115   -0.1000
33     C33    -2.9153   -8.8953    1.8228 C.ar     1 ZINC000024760115   -0.1000
34     C34    -2.7186   -7.5855    2.2930 C.ar     1 ZINC000024760115   -0.0400
35     C35    -1.2612   -4.3785    1.0380 C.ar     1 ZINC000024760115   -0.0900
36     C36    -1.0438   -3.0634    1.4646 C.ar     1 ZINC000024760115   -0.0600
37     H37     1.6690    1.4506    0.4886 H        1 ZINC000024760115    0.0800
38     H38     0.5491    1.8013   -0.8497 H        1 ZINC000024760115    0.0900
39     H39    -0.0262    1.8698    0.8334 H        1 ZINC000024760115    0.0900
40     H40    -1.9443   -2.7963   -2.3550 H        1 ZINC000024760115    0.1300
41     H41    -1.9269   -4.7396   -3.8652 H        1 ZINC000024760115    0.1400
42     H42     1.4314   -7.6892   -2.9820 H        1 ZINC000024760115    0.0900
43     H43     1.3415   -8.2078   -4.6823 H        1 ZINC000024760115    0.0700
44     H44     2.1714   -6.6917   -4.2570 H        1 ZINC000024760115    0.0700
45     H45    -2.0878   -6.9579   -3.9506 H        1 ZINC000024760115    0.0700
46     H46    -1.1457   -8.3633   -4.5034 H        1 ZINC000024760115    0.0700
47     H47    -1.0558   -7.8446   -2.8031 H        1 ZINC000024760115    0.0900
48     H48     1.9529   -5.8125   -2.4548 H        1 ZINC000024760115    0.1500
49     H49     1.9472   -3.8690   -0.9448 H        1 ZINC000024760115    0.1300
50     H50    -0.5345    0.4896    2.7890 H        1 ZINC000024760115    0.1700
51     H51    -2.2668   -3.3522    4.6431 H        1 ZINC000024760115    0.1500
52     H52    -2.6268   -5.6305    3.8784 H        1 ZINC000024760115    0.1400
53     H53    -1.0832   -6.4155   -0.4302 H        1 ZINC000024760115    0.1600
54     H54    -2.2533  -10.8496   -0.8998 H        1 ZINC000024760115    0.1400
55     H55    -3.4134  -12.4740    0.4924 H        1 ZINC000024760115    0.1300
56     H56    -4.2604  -11.8561    2.7152 H        1 ZINC000024760115    0.1300
57     H57    -3.9574   -9.5975    3.5802 H        1 ZINC000024760115    0.1300
58     H58    -3.0753   -7.2845    3.2670 H        1 ZINC000024760115    0.1400
59     H59    -0.9865   -4.6784    0.0375 H        1 ZINC000024760115    0.1300
@<TRIPOS>BOND
1     1     2     1
2     1     37    1
3     1     38    1
4     1     39    1
5     2     18    1
6     2     3     am
7     3     4     2
8     3     5     am
9     5     6     1
10    5     17    1
11    6     16    ar
12    6     7     ar
13    7     8     ar
14    7     40    1
15    8     9     ar
16    8     41    1
17    9     10    1
18    9     15    ar
19    10    11    1
20    10    12    1
21    10    13    1
22    11    42    1
23    11    43    1
24    11    44    1
25    12    45    1
26    12    46    1
27    12    47    1
28    13    14    3
29    15    16    ar
30    15    48    1
31    16    49    1
32    17    36    ar
33    17    18    ar
34    18    19    ar
35    19    20    ar
36    19    50    1
37    20    21    ar
38    21    36    ar
39    21    22    ar
40    22    23    ar
41    22    51    1
42    23    24    ar
43    23    52    1
44    24    25    1
45    24    35    ar
46    25    34    ar
47    25    26    ar
48    26    27    ar
49    26    53    1
50    27    28    ar
51    28    33    ar
52    28    29    ar
53    29    30    ar
54    29    54    1
55    30    31    ar
56    30    55    1
57    31    32    ar
58    31    56    1
59    32    33    ar
60    32    57    1
61    33    34    ar
62    34    58    1
63    35    36    ar
64    35    59    1
@<TRIPOS>SUBSTRUCTURE
1   ZINC000024760115 1     RESIDUE    1   A     ZIN   1


@<TRIPOS>MOLECULE
CC(C)OC1=C(C=CC(=C1)OC)C2=NC(C(N2C(=O)N3CCNC(=O)C3)C4=CC=C(C=C4)Cl)C5=CC=C(C=C5)Cl
70    74    1     0     0
SMALL
USER_CHARGES
@<TRIPOS>ATOM
1      C1      0.3151    0.9360    0.8078 C.3      1 ZINC000015965747    0.0300
2      O2      1.5717    0.8120    0.1388 O.3      1 ZINC000015965747   -0.3100
3      C3      1.6240   -0.0324   -0.9231 C.ar     1 ZINC000015965747    0.1900
4      C4      0.4830   -0.7234   -1.3154 C.ar     1 ZINC000015965747   -0.2600
5      C5      0.5281   -1.5816   -2.3915 C.ar     1 ZINC000015965747    0.0100
6      C6      1.7225   -1.7594   -3.0924 C.ar     1 ZINC000015965747   -0.1300
7      C7      1.7744   -2.6784   -4.2470 C.2      1 ZINC000015965747    0.4500
8      N8      1.5003   -3.9385   -4.1561 N.2      1 ZINC000015965747   -0.5100
9      C9      1.6402   -4.5838   -5.4684 C.3      1 ZINC000015965747    0.1000
10     H10     0.6882   -5.0067   -5.7890 H        1 ZINC000015965747    0.1200
11     C11     2.7013   -5.6529   -5.4201 C.ar     1 ZINC000015965747   -0.0800
12     C12     3.8524   -5.4510   -4.6817 C.ar     1 ZINC000015965747   -0.0800
13     C13     4.8259   -6.4311   -4.6370 C.ar     1 ZINC000015965747   -0.1100
14     C14     4.6482   -7.6144   -5.3315 C.ar     1 ZINC000015965747   -0.0300
15     Cl15    5.8703   -8.8461   -5.2755 Cl       1 ZINC000015965747   -0.0700
16     C16     3.4960   -7.8158   -6.0704 C.ar     1 ZINC000015965747   -0.1100
17     C17     2.5206   -6.8373   -6.1097 C.ar     1 ZINC000015965747   -0.0900
18     C18     2.0661   -3.4390   -6.4085 C.3      1 ZINC000015965747    0.1300
19     H19     3.0475   -3.6395   -6.8383 H        1 ZINC000015965747    0.1200
20     C20     1.0429   -3.2362   -7.4962 C.ar     1 ZINC000015965747   -0.1100
21     C21    -0.1102   -2.5198   -7.2353 C.ar     1 ZINC000015965747   -0.0900
22     C22    -1.0490   -2.3335   -8.2325 C.ar     1 ZINC000015965747   -0.1000
23     C23    -0.8344   -2.8642   -9.4920 C.ar     1 ZINC000015965747   -0.0300
24     Cl24   -2.0127   -2.6301  -10.7452 Cl       1 ZINC000015965747   -0.0600
25     C25     0.3199   -3.5810   -9.7526 C.ar     1 ZINC000015965747   -0.1000
26     C26     1.2605   -3.7619   -8.7562 C.ar     1 ZINC000015965747   -0.0900
27     N27     2.1135   -2.2677   -5.5175 N.am     1 ZINC000015965747   -0.5800
28     C28     2.4406   -1.0117   -5.8806 C.2      1 ZINC000015965747    0.7400
29     O29     2.5316   -0.1397   -5.0386 O.2      1 ZINC000015965747   -0.5300
30     N30     2.6669   -0.7225   -7.1774 N.am     1 ZINC000015965747   -0.6200
31     C31     2.9170    0.6590   -7.6220 C.3      1 ZINC000015965747    0.1100
32     C32     4.3158    0.7163   -8.2389 C.3      1 ZINC000015965747    0.0900
33     N33     4.5187   -0.3912   -9.1627 N.am     1 ZINC000015965747   -0.7200
34     C34     3.8265   -1.5312   -9.1419 C.2      1 ZINC000015965747    0.5100
35     O35     4.1408   -2.4130   -9.9129 O.2      1 ZINC000015965747   -0.5400
36     C36     2.6801   -1.7743   -8.2049 C.3      1 ZINC000015965747    0.0400
37     C37     2.8720   -1.0619   -2.6964 C.ar     1 ZINC000015965747    0.2500
38     O38     4.0368   -1.2293   -3.3726 O.3      1 ZINC000015965747   -0.2900
39     C39     5.1465   -0.4282   -2.9617 C.3      1 ZINC000015965747    0.0800
40     C40     6.4507   -1.1136   -3.3740 C.3      1 ZINC000015965747   -0.1500
41     C41     5.0589    0.9455   -3.6297 C.3      1 ZINC000015965747   -0.1700
42     C42     2.8141   -0.1982   -1.6163 C.ar     1 ZINC000015965747   -0.2600
43     H43    -0.4354    1.3006    0.1065 H        1 ZINC000015965747    0.0600
44     H44     0.0106   -0.0374    1.1923 H        1 ZINC000015965747    0.0600
45     H45     0.4117    1.6394    1.6348 H        1 ZINC000015965747    0.1000
46     H46    -0.4416   -0.5869   -0.7742 H        1 ZINC000015965747    0.1300
47     H47    -0.3600   -2.1172   -2.6929 H        1 ZINC000015965747    0.1300
48     H48     3.9912   -4.5271   -4.1399 H        1 ZINC000015965747    0.1300
49     H49     5.7253   -6.2731   -4.0604 H        1 ZINC000015965747    0.1300
50     H50     3.3568   -8.7392   -6.6130 H        1 ZINC000015965747    0.1400
51     H51     1.6210   -6.9946   -6.6861 H        1 ZINC000015965747    0.1400
52     H52    -0.2778   -2.1060   -6.2519 H        1 ZINC000015965747    0.1300
53     H53    -1.9500   -1.7742   -8.0284 H        1 ZINC000015965747    0.1400
54     H54     0.4878   -3.9958  -10.7356 H        1 ZINC000015965747    0.1400
55     H55     2.1618   -4.3211   -8.9595 H        1 ZINC000015965747    0.1400
56     H56     2.1746    0.9458   -8.3668 H        1 ZINC000015965747    0.0800
57     H57     2.8633    1.3354   -6.7689 H        1 ZINC000015965747    0.1200
58     H58     4.4328    1.6576   -8.7760 H        1 ZINC000015965747    0.0900
59     H59     5.0606    0.6623   -7.4449 H        1 ZINC000015965747    0.0700
60     H60     5.2053   -0.2928   -9.8409 H        1 ZINC000015965747    0.4000
61     H61     2.7956   -2.7497   -7.7323 H        1 ZINC000015965747    0.1600
62     H62     1.7424   -1.7442   -8.7598 H        1 ZINC000015965747    0.1100
63     H63     5.1261   -0.3075   -1.8786 H        1 ZINC000015965747    0.0700
64     H64     6.4711   -1.2343   -4.4571 H        1 ZINC000015965747    0.0600
65     H65     7.2972   -0.5026   -3.0605 H        1 ZINC000015965747    0.0800
66     H66     6.5131   -2.0923   -2.8981 H        1 ZINC000015965747    0.0600
67     H67     5.9053    1.5565   -3.3162 H        1 ZINC000015965747    0.0600
68     H68     5.0792    0.8247   -4.7128 H        1 ZINC000015965747    0.0600
69     H69     4.1297    1.4337   -3.3359 H        1 ZINC000015965747    0.0700
70     H70     3.6977    0.3412   -1.3085 H        1 ZINC000015965747    0.1400
@<TRIPOS>BOND
1     1     2     1
2     1     43    1
3     1     44    1
4     1     45    1
5     2     3     1
6     3     42    ar
7     3     4     ar
8     4     5     ar
9     4     46    1
10    5     6     ar
11    5     47    1
12    6     7     1
13    6     37    ar
14    7     27    1
15    7     8     2
16    8     9     1
17    9     10    1
18    9     11    1
19    9     18    1
20    11    17    ar
21    11    12    ar
22    12    13    ar
23    12    48    1
24    13    14    ar
25    13    49    1
26    14    15    1
27    14    16    ar
28    16    17    ar
29    16    50    1
30    17    51    1
31    18    19    1
32    18    20    1
33    18    27    1
34    20    26    ar
35    20    21    ar
36    21    22    ar
37    21    52    1
38    22    23    ar
39    22    53    1
40    23    24    1
41    23    25    ar
42    25    26    ar
43    25    54    1
44    26    55    1
45    27    28    am
46    28    29    2
47    28    30    am
48    30    36    1
49    30    31    1
50    31    32    1
51    31    56    1
52    31    57    1
53    32    33    1
54    32    58    1
55    32    59    1
56    33    34    am
57    33    60    1
58    34    35    2
59    34    36    1
60    36    61    1
61    36    62    1
62    37    38    1
63    37    42    ar
64    38    39    1
65    39    40    1
66    39    41    1
67    39    63    1
68    40    64    1
69    40    65    1
70    40    66    1
71    41    67    1
72    41    68    1
73    41    69    1
74    42    70    1
@<TRIPOS>SUBSTRUCTURE
1   ZINC000015965747 1     RESIDUE    1   A     ZIN   1


@<TRIPOS>MOLECULE
CC12C(C(CC(O1)N3C4=CC=CC=C4C5=C6C(=C7C8=CC=CC=C8N2C7=C53)CNC6=O)NC)OC
  62   69    0    0    0
SMALL
USER_CHARGES
NO_NAME
@<TRIPOS>ATOM
    1 C1       -0.9661     1.0031     0.4683 C.3    1 <0>      -0.0500
    2 N2        0.0189     0.0032     0.0346 N.4    1 <0>      -0.5200
    3 H3       -0.4575    -0.7682    -0.4082 H      1 <0>       0.4300
    4 H4        0.6591     0.4245    -0.6217 H      1 <0>       0.4300
    5 C5        0.7653    -0.4868     1.2011 C.3    1 <0>      -0.0100
    6 H6        0.4030     0.0058     2.1034 H      1 <0>       0.1600
    7 C7        2.2595    -0.1983     1.0181 C.3    1 <0>      -0.1800
    8 C8        2.7619    -0.9023    -0.2361 C.3    1 <0>       0.3000
    9 H9        3.8508    -0.8586    -0.2138 H      1 <0>       0.1600
   10 O10       2.4012    -2.2646    -0.2735 O.3    1 <0>      -0.3200
   11 C11       1.0934    -2.6719     0.0586 C.3    1 <0>       0.3300
   12 C12       1.1521    -4.1700     0.3640 C.3    1 <0>      -0.1700
   13 C13       0.5850    -2.0035     1.3313 C.3    1 <0>       0.0400
   14 H14       1.1399    -2.3845     2.1886 H      1 <0>       0.1400
   15 O15      -0.8050    -2.2900     1.4976 O.3    1 <0>      -0.3600
   16 C16      -1.2299    -2.3358     2.8612 C.3    1 <0>       0.0200
   17 N17       0.1539    -2.4960    -1.0500 N.pl3  1 <0>      -0.5100
   18 C18      -0.9555    -3.2665    -1.3051 C.ar   1 <0>       0.1500
   19 C19      -1.5981    -2.7707    -2.4611 C.ar   1 <0>      -0.1000
   20 C20      -2.7601    -3.3595    -2.9591 C.ar   1 <0>      -0.0500
   21 C21      -3.2512    -4.4544    -2.2672 C.ar   1 <0>      -0.1300
   22 C22      -2.6226    -4.9436    -1.1358 C.ar   1 <0>      -0.0700
   23 C23      -1.4695    -4.3706    -0.6261 C.ar   1 <0>      -0.1300
   24 C24      -0.8079    -1.6281    -2.9233 C.ar   1 <0>      -0.0400
   25 C25       0.2584    -1.5088    -2.0185 C.ar   1 <0>       0.0800
   26 C26       1.2121    -0.4989    -2.1905 C.ar   1 <0>       0.0500
   27 C27       1.1050     0.3895    -3.2623 C.ar   1 <0>       0.0100
   28 C28       2.2461     1.2937    -3.1535 C.ar   1 <0>      -0.1100
   29 C29       2.6635     2.3660    -3.9439 C.ar   1 <0>      -0.0300
   30 C30       3.8158     3.0230    -3.5467 C.ar   1 <0>      -0.1400
   31 C31       4.5234     2.6394    -2.4210 C.ar   1 <0>      -0.0600
   32 C32       4.1270     1.5772    -1.6258 C.ar   1 <0>      -0.1400
   33 C33       2.9702     0.8975    -2.0046 C.ar   1 <0>       0.1300
   34 N34       2.3272    -0.1879    -1.4373 N.pl3  1 <0>      -0.5400
   35 C35       0.0235     0.2714    -4.1666 C.ar   1 <0>      -0.1200
   36 C36      -0.9183    -0.7356    -3.9848 C.ar   1 <0>      -0.0300
   37 C37      -1.9244    -0.5868    -5.0999 C.3    1 <0>       0.1400
   38 N38      -1.4787     0.5585    -5.9015 N.am   1 <0>      -0.7200
   39 C39      -0.3518     1.0487    -5.3578 C.2    1 <0>       0.5600
   40 O40       0.2696     2.0011    -5.7892 O.2    1 <0>      -0.5100
   41 H41      -0.4515     1.8364     0.9466 H      1 <0>       0.1200
   42 H42      -1.5200     1.3667    -0.3973 H      1 <0>       0.1300
   43 H43      -1.6578     0.5480     1.1772 H      1 <0>       0.1300
   44 H44       2.4126     0.8763     0.9178 H      1 <0>       0.1200
   45 H45       2.8092    -0.5644     1.8853 H      1 <0>       0.1500
   46 H46       2.0849    -4.3996     0.8789 H      1 <0>       0.1000
   47 H47       0.3096    -4.4447     0.9987 H      1 <0>       0.1000
   48 H48       1.1035    -4.7330    -0.5681 H      1 <0>       0.0900
   49 H49      -2.2962    -2.5584     2.9022 H      1 <0>       0.1100
   50 H50      -0.6761    -3.1126     3.3884 H      1 <0>       0.0600
   51 H51      -1.0416    -1.3715     3.3331 H      1 <0>       0.0500
   52 H52      -3.2535    -2.9798    -3.8415 H      1 <0>       0.1400
   53 H53      -4.1490    -4.9395    -2.6206 H      1 <0>       0.1300
   54 H54      -3.0458    -5.8006    -0.6330 H      1 <0>       0.1300
   55 H55      -0.9887    -4.7625     0.2580 H      1 <0>       0.1400
   56 H56       2.1142     2.6684    -4.8232 H      1 <0>       0.1600
   57 H57       4.1724     3.8577    -4.1318 H      1 <0>       0.1400
   58 H58       5.4152     3.1868    -2.1538 H      1 <0>       0.1400
   59 H59       4.6894     1.2880    -0.7504 H      1 <0>       0.1400
   60 H60      -1.9419    -1.4886    -5.7118 H      1 <0>       0.1100
   61 H61      -2.9148    -0.3933    -4.6879 H      1 <0>       0.1100
   62 H62      -1.9231     0.9040    -6.6914 H      1 <0>       0.4300
@<TRIPOS>BOND
   1    1    2 1
   2    1   41 1
   3    1   42 1
   4    1   43 1
   5    2    3 1
   6    2    4 1
   7    2    5 1
   8    5    6 1
   9    5   13 1
  10    5    7 1
  11    7    8 1
  12    7   44 1
  13    7   45 1
  14    8    9 1
  15    8   34 1
  16    8   10 1
  17   10   11 1
  18   11   12 1
  19   11   13 1
  20   11   17 1
  21   12   46 1
  22   12   47 1
  23   12   48 1
  24   13   14 1
  25   13   15 1
  26   15   16 1
  27   16   49 1
  28   16   50 1
  29   16   51 1
  30   17   25 1
  31   17   18 1
  32   18   23 ar
  33   18   19 ar
  34   19   20 ar
  35   19   24 1
  36   20   21 ar
  37   20   52 1
  38   21   22 ar
  39   21   53 1
  40   22   23 ar
  41   22   54 1
  42   23   55 1
  43   24   36 ar
  44   24   25 ar
  45   25   26 ar
  46   26   34 1
  47   26   27 ar
  48   27   28 1
  49   27   35 ar
  50   28   33 ar
  51   28   29 ar
  52   29   30 ar
  53   29   56 1
  54   30   31 ar
  55   30   57 1
  56   31   32 ar
  57   31   58 1
  58   32   33 ar
  59   32   59 1
  60   33   34 1
  61   35   39 1
  62   35   36 ar
  63   36   37 1
  64   37   38 1
  65   37   60 1
  66   37   61 1
  67   38   39 am
  68   38   62 1
  69   39   40 2


@<TRIPOS>MOLECULE
C1C2=C(C3=CC=CC=C3NC1=O)NC4=CC=CC=C24
31    34    1     0     0
SMALL
USER_CHARGES
@<TRIPOS>ATOM
1      O1      0.0021   -0.0041    0.0020 O.2      1 ZINC000001626613   -0.5300
2      C2     -0.0144    1.2087    0.0087 C.2      1 ZINC000001626613    0.5300
3      C3     -1.3428    1.9235    0.0315 C.3      1 ZINC000001626613   -0.0600
4      C4     -1.4358    2.7561   -1.2233 C.2      1 ZINC000001626613   -0.1500
5      C5     -0.5458    3.7163   -1.5813 C.2      1 ZINC000001626613    0.1200
6      N6     -0.9138    4.2505   -2.8009 N.pl3    1 ZINC000001626613   -0.5800
7      C7     -2.0674    3.6602   -3.2320 C.ar     1 ZINC000001626613    0.1100
8      C8     -2.8405    3.8516   -4.3745 C.ar     1 ZINC000001626613   -0.1300
9      C9     -3.9763    3.0693   -4.5020 C.ar     1 ZINC000001626613   -0.0900
10     C10    -4.3418    2.1346   -3.5476 C.ar     1 ZINC000001626613   -0.1500
11     C11    -3.5995    1.9232   -2.4117 C.ar     1 ZINC000001626613   -0.0600
12     C12    -2.4460    2.6999   -2.2569 C.ar     1 ZINC000001626613   -0.1000
13     C13     0.6160    4.1384   -0.7697 C.ar     1 ZINC000001626613   -0.0600
14     C14     0.9699    5.4923   -0.7865 C.ar     1 ZINC000001626613   -0.0900
15     C15     2.0213    5.9467   -0.0207 C.ar     1 ZINC000001626613   -0.1300
16     C16     2.7289    5.0608    0.7732 C.ar     1 ZINC000001626613   -0.0900
17     C17     2.3990    3.7227    0.7870 C.ar     1 ZINC000001626613   -0.1400
18     C18     1.3505    3.2381    0.0025 C.ar     1 ZINC000001626613    0.1800
19     N19     1.1397    1.8708    0.0012 N.am     1 ZINC000001626613   -0.6600
20     H20    -2.1539    1.1957    0.0531 H        1 ZINC000001626613    0.1100
21     H21    -1.4005    2.5686    0.9082 H        1 ZINC000001626613    0.1000
22     H22    -0.4268    4.9402   -3.2786 H        1 ZINC000001626613    0.4200
23     H23    -2.5672    4.5771   -5.1264 H        1 ZINC000001626613    0.1300
24     H24    -4.5987    3.1926   -5.3760 H        1 ZINC000001626613    0.1200
25     H25    -5.2393    1.5539   -3.7014 H        1 ZINC000001626613    0.1200
26     H26    -3.8925    1.1923   -1.6726 H        1 ZINC000001626613    0.1300
27     H27     0.4162    6.1846   -1.4033 H        1 ZINC000001626613    0.1300
28     H28     2.2929    6.9918   -0.0402 H        1 ZINC000001626613    0.1300
29     H29     3.5437    5.4198    1.3845 H        1 ZINC000001626613    0.1300
30     H30     2.9579    3.0414    1.4113 H        1 ZINC000001626613    0.1400
31     H31     1.9395    1.3220   -0.0113 H        1 ZINC000001626613    0.4100
@<TRIPOS>BOND
1     1     2     2
2     2     19    am
3     2     3     1
4     3     4     1
5     3     20    1
6     3     21    1
7     4     12    1
8     4     5     2
9     5     6     1
10    5     13    1
11    6     7     1
12    6     22    1
13    7     12    ar
14    7     8     ar
15    8     9     ar
16    8     23    1
17    9     10    ar
18    9     24    1
19    10    11    ar
20    10    25    1
21    11    12    ar
22    11    26    1
23    13    18    ar
24    13    14    ar
25    14    15    ar
26    14    27    1
27    15    16    ar
28    15    28    1
29    16    17    ar
30    16    29    1
31    17    18    ar
32    17    30    1
33    18    19    1
34    19    31    1
@<TRIPOS>SUBSTRUCTURE
1   ZINC000001626613 1     RESIDUE    1   A     ZIN   1


@<TRIPOS>MOLECULE
C1=CC(=C(C(=C1)F)C(=O)N2C(=NC(=N2)NC3=CC=C(C=C3)S(=O)(=O)N)N)F
  39   41    0    0    0
SMALL
USER_CHARGES
NO_NAME
@<TRIPOS>ATOM
    1 N1        0.3043     1.2041    -0.2951 N.pl3  1 <0>      -0.7900
    2 C2        0.1983    -0.1698    -0.2306 C.2    1 <0>       0.5900
    3 N3       -0.9185    -0.8574    -0.1342 N.2    1 <0>      -0.5900
    4 C4       -0.6415    -2.1668    -0.0956 C.2    1 <0>       0.5200
    5 N5       -1.5838    -3.1884     0.0039 N.pl3  1 <0>      -0.6200
    6 C6       -2.9405    -2.8778     0.1286 C.ar   1 <0>       0.2300
    7 C7       -3.7863    -3.7237     0.8349 C.ar   1 <0>      -0.1700
    8 C8       -5.1266    -3.4138     0.9561 C.ar   1 <0>       0.0100
    9 C9       -5.6271    -2.2630     0.3750 C.ar   1 <0>      -0.7000
   10 S10      -7.3379    -1.8714     0.5322 S.o2   1 <0>       2.7000
   11 N11      -7.5079    -0.9590     1.9036 N.am   1 <0>      -1.2500
   12 O12      -7.6562    -1.0188    -0.5591 O.2    1 <0>      -0.9600
   13 O13      -8.0093    -3.0988     0.7810 O.2    1 <0>      -0.9600
   14 C14      -4.7880    -1.4187    -0.3288 C.ar   1 <0>       0.0100
   15 C15      -3.4454    -1.7194    -0.4486 C.ar   1 <0>      -0.1500
   16 N16       0.6567    -2.3355    -0.1668 N.2    1 <0>      -0.3500
   17 N17       1.2325    -1.0581    -0.2615 N.am   1 <0>      -0.4000
   18 C18       2.5453    -0.7678    -0.3550 C.2    1 <0>       0.6200
   19 O19       2.9140     0.3903    -0.3419 O.2    1 <0>      -0.4700
   20 C20       3.5338    -1.8545    -0.4730 C.ar   1 <0>      -0.2000
   21 C21       3.8399    -2.3946    -1.7277 C.ar   1 <0>       0.1700
   22 F22       3.2303    -1.9208    -2.8363 F      1 <0>      -0.1200
   23 C23       4.7681    -3.4135    -1.8288 C.ar   1 <0>      -0.1600
   24 C24       5.3935    -3.9000    -0.6951 C.ar   1 <0>      -0.0300
   25 C25       5.0972    -3.3725     0.5487 C.ar   1 <0>      -0.1600
   26 C26       4.1762    -2.3489     0.6682 C.ar   1 <0>       0.1700
   27 F27       3.8886    -1.8348     1.8840 F      1 <0>      -0.1200
   28 H28       1.1773     1.6202    -0.3698 H      1 <0>       0.4300
   29 H29      -0.4945     1.7538    -0.2696 H      1 <0>       0.4300
   30 H30      -1.2980    -4.1152    -0.0133 H      1 <0>       0.4300
   31 H31      -3.3962    -4.6230     1.2883 H      1 <0>       0.1400
   32 H32      -5.7847    -4.0710     1.5050 H      1 <0>       0.1500
   33 H33      -6.7306    -0.7438     2.4424 H      1 <0>       0.4200
   34 H34      -8.3848    -0.6397     2.1681 H      1 <0>       0.4200
   35 H35      -5.1821    -0.5210    -0.7816 H      1 <0>       0.1500
   36 H36      -2.7906    -1.0596    -0.9983 H      1 <0>       0.1600
   37 H37       5.0056    -3.8313    -2.7960 H      1 <0>       0.1500
   38 H38       6.1173    -4.6969    -0.7815 H      1 <0>       0.1500
   39 H39       5.5901    -3.7587     1.4287 H      1 <0>       0.1500
@<TRIPOS>BOND
   1    1    2 1
   2    1   28 1
   3    1   29 1
   4    2   17 1
   5    2    3 2
   6    3    4 1
   7    4    5 1
   8    4   16 2
   9    5    6 1
  10    5   30 1
  11    6   15 ar
  12    6    7 ar
  13    7    8 ar
  14    7   31 1
  15    8    9 ar
  16    8   32 1
  17    9   10 1
  18    9   14 ar
  19   10   11 am
  20   10   12 2
  21   10   13 2
  22   11   33 1
  23   11   34 1
  24   14   15 ar
  25   14   35 1
  26   15   36 1
  27   16   17 1
  28   17   18 am
  29   18   19 2
  30   18   20 1
  31   20   26 ar
  32   20   21 ar
  33   21   22 1
  34   21   23 ar
  35   23   24 ar
  36   23   37 1
  37   24   25 ar
  38   24   38 1
  39   25   26 ar
  40   25   39 1
  41   26   27 1


@<TRIPOS>MOLECULE
C1=CC=C2C(=C1)C(=C(N2)C3=C(NC4=C3C=CC(=C4)Br)O)N=O
  32   35    0    0    0
SMALL
USER_CHARGES
NO_NAME
@<TRIPOS>ATOM
    1 O1        0.0021    -0.0041     0.0020 O.2    1 <0>       0.0800
    2 N2       -0.0144     1.2138     0.0087 N.2    1 <0>      -0.3000
    3 C3        1.1226     1.8911     0.0015 C.2    1 <0>      -0.1600
    4 C4        1.2775     3.2852     0.0132 C.2    1 <0>       0.2500
    5 C5        0.1518     4.2868     0.0369 C.3    1 <0>      -0.0300
    6 C6        0.3151     5.2409     1.2009 C.2    1 <0>       0.5300
    7 O7        0.3271     4.9466     2.3775 O.2    1 <0>      -0.4700
    8 N8        0.4449     6.4751     0.6856 N.am   1 <0>      -0.6500
    9 C9        0.3884     6.4741    -0.7085 C.ar   1 <0>       0.1500
   10 C10       0.4786     7.5200    -1.6243 C.ar   1 <0>      -0.1100
   11 C11       0.3919     7.2648    -2.9785 C.ar   1 <0>      -0.0500
   12 Br12      0.5148     8.6910    -4.2141 Br     1 <0>      -0.0200
   13 C13       0.2161     5.9711    -3.4362 C.ar   1 <0>      -0.1000
   14 C14       0.1262     4.9272    -2.5316 C.ar   1 <0>      -0.0400
   15 C15       0.2114     5.1795    -1.1812 C.ar   1 <0>      -0.1400
   16 N16       2.5792     3.5862     0.0008 N.pl3  1 <0>      -0.5300
   17 C17       3.3555     2.4406    -0.0195 C.ar   1 <0>       0.0700
   18 C18       4.7298     2.2317    -0.0377 C.ar   1 <0>      -0.1100
   19 C19       5.2315     0.9467    -0.0561 C.ar   1 <0>      -0.1000
   20 C20       4.3775    -0.1442    -0.0566 C.ar   1 <0>      -0.1200
   21 C21       3.0102     0.0446    -0.0387 C.ar   1 <0>      -0.0700
   22 C22       2.4941     1.3340    -0.0141 C.ar   1 <0>      -0.0700
   23 H23      -0.8104     3.7773     0.0902 H      1 <0>       0.1700
   24 H24       0.5641     7.2749     1.2214 H      1 <0>       0.4200
   25 H25       0.6162     8.5324    -1.2744 H      1 <0>       0.1400
   26 H26       0.1495     5.7761    -4.4963 H      1 <0>       0.1500
   27 H27      -0.0111     3.9159    -2.8850 H      1 <0>       0.1400
   28 H28       2.9337     4.4891     0.0051 H      1 <0>       0.4200
   29 H29       5.4044     3.0751    -0.0378 H      1 <0>       0.1300
   30 H30       6.3000     0.7897    -0.0705 H      1 <0>       0.1400
   31 H31       4.7827    -1.1452    -0.0714 H      1 <0>       0.1400
   32 H32       2.3449    -0.8061    -0.0395 H      1 <0>       0.1500
@<TRIPOS>BOND
   1    1    2 2
   2    2    3 1
   3    3   22 1
   4    3    4 2
   5    4    5 1
   6    4   16 1
   7    5   15 1
   8    5    6 1
   9    5   23 1
  10    6    7 2
  11    6    8 am
  12    8    9 1
  13    8   24 1
  14    9   15 ar
  15    9   10 ar
  16   10   11 ar
  17   10   25 1
  18   11   12 1
  19   11   13 ar
  20   13   14 ar
  21   13   26 1
  22   14   15 ar
  23   14   27 1
  24   16   17 1
  25   16   28 1
  26   17   22 ar
  27   17   18 ar
  28   18   19 ar
  29   18   29 1
  30   19   20 ar
  31   19   30 1
  32   20   21 ar
  33   20   31 1
  34   21   22 ar
  35   21   32 1


@<TRIPOS>MOLECULE
C1CNCCC1NC(=O)C2=C(C=NN2)NC(=O)C3=C(C=CC=C3Cl)Cl
43    45    1     0     0
SMALL
USER_CHARGES
@<TRIPOS>ATOM
1      O1      0.0021   -0.0041    0.0020 O.2      1 ZINC000016052857   -0.5300
2      C2     -0.0144    1.2117    0.0087 C.2      1 ZINC000016052857    0.6200
3      N3      1.1435    1.9014    0.0014 N.am     1 ZINC000016052857   -0.7200
4      C4      2.4220    1.1863   -0.0147 C.3      1 ZINC000016052857    0.1400
5      C5      2.7986    0.8429   -1.4588 C.3      1 ZINC000016052857   -0.1600
6      C6      4.1714    0.1673   -1.4753 C.3      1 ZINC000016052857    0.0000
7      N7      5.1751    1.0766   -0.9093 N.4      1 ZINC000016052857   -0.5100
8      H8      6.0871    0.6494   -0.9706 H        1 ZINC000016052857    0.4300
9      H9      5.1745    1.9418   -1.4285 H        1 ZINC000016052857    0.4300
10     C10     4.8596    1.3533    0.4973 C.3      1 ZINC000016052857    0.0000
11     C11     3.5133    2.0746    0.5896 C.3      1 ZINC000016052857   -0.1600
12     C12    -1.3017    1.9318    0.0187 C.2      1 ZINC000016052857   -0.0500
13     N13    -1.4682    3.2403    0.0208 N.2      1 ZINC000016052857   -0.2400
14     N14    -2.7196    3.5295    0.0295 N.pl3    1 ZINC000016052857   -0.3600
15     C15    -3.4637    2.3937    0.0337 C.2      1 ZINC000016052857   -0.0200
16     C16    -2.5949    1.3478    0.0217 C.2      1 ZINC000016052857    0.0900
17     N17    -2.9102   -0.0191    0.0201 N.am     1 ZINC000016052857   -0.6200
18     C18    -4.1990   -0.4134    0.0319 C.2      1 ZINC000016052857    0.5700
19     O19    -5.0883    0.4157    0.0438 O.2      1 ZINC000016052857   -0.5000
20     C20    -4.5309   -1.8523    0.0302 C.ar     1 ZINC000016052857   -0.1200
21     C21    -4.6821   -2.5395    1.2376 C.ar     1 ZINC000016052857    0.0000
22     Cl22   -4.4808   -1.7038    2.7458 Cl       1 ZINC000016052857   -0.0400
23     C23    -4.9925   -3.8851    1.2279 C.ar     1 ZINC000016052857   -0.1000
24     C24    -5.1533   -4.5528    0.0271 C.ar     1 ZINC000016052857   -0.0700
25     C25    -5.0053   -3.8794   -1.1721 C.ar     1 ZINC000016052857   -0.1000
26     C26    -4.7011   -2.5324   -1.1788 C.ar     1 ZINC000016052857    0.0000
27     Cl27   -4.5163   -1.6893   -2.6850 Cl       1 ZINC000016052857   -0.0400
28     H28     1.1303    2.8713    0.0067 H        1 ZINC000016052857    0.4100
29     H29     2.3341    0.2694    0.5681 H        1 ZINC000016052857    0.1100
30     H30     2.0545    0.1655   -1.8778 H        1 ZINC000016052857    0.1200
31     H31     2.8353    1.7564   -2.0524 H        1 ZINC000016052857    0.0900
32     H32     4.1335   -0.7461   -0.8817 H        1 ZINC000016052857    0.1300
33     H33     4.4426   -0.0787   -2.5020 H        1 ZINC000016052857    0.1400
34     H34     4.8070    0.4146    1.0488 H        1 ZINC000016052857    0.1400
35     H35     5.6388    1.9830    0.9269 H        1 ZINC000016052857    0.1400
36     H36     3.5648    3.0136    0.0386 H        1 ZINC000016052857    0.1000
37     H37     3.2800    2.2775    1.6349 H        1 ZINC000016052857    0.1200
38     H38    -3.0811    4.4297    0.0332 H        1 ZINC000016052857    0.4600
39     H39    -4.5419    2.3326    0.0410 H        1 ZINC000016052857    0.2100
40     H40    -2.2008   -0.6805    0.0106 H        1 ZINC000016052857    0.4300
41     H41    -5.1097   -4.4176    2.1602 H        1 ZINC000016052857    0.1500
42     H42    -5.3954   -5.6053    0.0259 H        1 ZINC000016052857    0.1500
43     H43    -5.1324   -4.4075   -2.1056 H        1 ZINC000016052857    0.1500
@<TRIPOS>BOND
1     1     2     2
2     2     3     am
3     2     12    1
4     3     4     1
5     3     28    1
6     4     11    1
7     4     5     1
8     4     29    1
9     5     6     1
10    5     30    1
11    5     31    1
12    6     7     1
13    6     32    1
14    6     33    1
15    7     8     1
16    7     9     1
17    7     10    1
18    10    11    1
19    10    34    1
20    10    35    1
21    11    36    1
22    11    37    1
23    12    16    1
24    12    13    2
25    13    14    1
26    14    15    1
27    14    38    1
28    15    16    2
29    15    39    1
30    16    17    1
31    17    18    am
32    17    40    1
33    18    19    2
34    18    20    1
35    20    26    ar
36    20    21    ar
37    21    22    1
38    21    23    ar
39    23    24    ar
40    23    41    1
41    24    25    ar
42    24    42    1
43    25    26    ar
44    25    43    1
45    26    27    1
@<TRIPOS>SUBSTRUCTURE
1   ZINC000016052857 1     RESIDUE    1   A     ZIN   1


@<TRIPOS>MOLECULE
CC1(CC2=CN=C(N=C2C3=C1C(=NN3C)C(=O)NC)NC4=CC=C(C=C4)N5CCN(CC5)C)C
67    71    1     0     0
SMALL
USER_CHARGES
@<TRIPOS>ATOM
1      C1      1.0328    1.2816    0.1852 C.3      1 ZINC000053119602    0.0900
2      N2      1.2207   -0.1608    0.0106 N.am     1 ZINC000053119602   -0.7200
3      C3      0.2474   -0.9038   -0.5525 C.2      1 ZINC000053119602    0.6100
4      O4     -0.7864   -0.3772   -0.9155 O.2      1 ZINC000053119602   -0.5200
5      C5      0.4369   -2.3585   -0.7287 C.2      1 ZINC000053119602    0.0000
6      N6      0.3685   -3.2816    0.2191 N.2      1 ZINC000053119602   -0.2400
7      N7      0.5844   -4.4545   -0.2752 N.pl3    1 ZINC000053119602   -0.2500
8      C8      0.5735   -5.7057    0.4869 C.3      1 ZINC000053119602    0.0900
9      C9      0.8208   -4.3543   -1.5975 C.2      1 ZINC000053119602    0.0300
10     C10     0.7156   -3.0191   -1.9253 C.2      1 ZINC000053119602   -0.1100
11     C11     0.8855   -2.5174   -3.3296 C.3      1 ZINC000053119602    0.0100
12     C12    -0.4646   -2.5495   -4.0487 C.3      1 ZINC000053119602   -0.1400
13     C13     1.4110   -1.0809   -3.2970 C.3      1 ZINC000053119602   -0.1500
14     C14     1.8811   -3.4058   -4.0766 C.3      1 ZINC000053119602   -0.0600
15     C15     1.6189   -4.8679   -3.8619 C.ar     1 ZINC000053119602   -0.2000
16     C16     1.8653   -5.7855   -4.8656 C.ar     1 ZINC000053119602    0.1900
17     N17     1.6500   -7.0713   -4.6315 N.ar     1 ZINC000053119602   -0.5600
18     C18     1.2077   -7.4947   -3.4560 C.ar     1 ZINC000053119602    0.5600
19     N19     1.0150   -8.8514   -3.2547 N.pl3    1 ZINC000053119602   -0.6400
20     C20     1.3949   -9.7673   -4.2444 C.ar     1 ZINC000053119602    0.1700
21     C21     2.4975   -9.5051   -5.0467 C.ar     1 ZINC000053119602   -0.0900
22     C22     2.8717  -10.4075   -6.0224 C.ar     1 ZINC000053119602   -0.1000
23     C23     2.1455  -11.5778   -6.2011 C.ar     1 ZINC000053119602    0.0600
24     N24     2.5250  -12.4927   -7.1897 N.3      1 ZINC000053119602   -0.4800
25     C25     2.5729  -11.8508   -8.5110 C.3      1 ZINC000053119602    0.0300
26     C26     3.0482  -12.8672   -9.5516 C.3      1 ZINC000053119602    0.0000
27     N27     2.1261  -14.0102   -9.5766 N.4      1 ZINC000053119602   -0.3900
28     H28     1.1978  -13.6883   -9.8063 H        1 ZINC000053119602    0.4200
29     C29     2.5728  -14.9773  -10.5881 C.3      1 ZINC000053119602   -0.0500
30     C30     2.1077  -14.6557   -8.2573 C.3      1 ZINC000053119602    0.0000
31     C31     1.6246  -13.6542   -7.2060 C.3      1 ZINC000053119602    0.0200
32     C32     1.0431  -11.8402   -5.3984 C.ar     1 ZINC000053119602   -0.1400
33     C33     0.6721  -10.9401   -4.4192 C.ar     1 ZINC000053119602   -0.1200
34     N34     0.9456   -6.6495   -2.4676 N.ar     1 ZINC000053119602   -0.5500
35     C35     1.1199   -5.3502   -2.6408 C.ar     1 ZINC000053119602    0.3000
36     H36     0.8749    1.7478   -0.7873 H        1 ZINC000053119602    0.0700
37     H37     0.1645    1.4607    0.8193 H        1 ZINC000053119602    0.0600
38     H38     1.9192    1.7094    0.6536 H        1 ZINC000053119602    0.0800
39     H39     2.0456   -0.5810    0.3002 H        1 ZINC000053119602    0.4100
40     H40    -0.4341   -6.1215    0.4882 H        1 ZINC000053119602    0.0900
41     H41     1.2595   -6.4171    0.0271 H        1 ZINC000053119602    0.1000
42     H42     0.8869   -5.5094    1.5122 H        1 ZINC000053119602    0.1000
43     H43    -1.1737   -1.9136   -3.5187 H        1 ZINC000053119602    0.0700
44     H44    -0.3418   -2.1852   -5.0686 H        1 ZINC000053119602    0.0700
45     H45    -0.8402   -3.5725   -4.0710 H        1 ZINC000053119602    0.0500
46     H46     2.3142   -1.0381   -2.6883 H        1 ZINC000053119602    0.0600
47     H47     1.6409   -0.7549   -4.3114 H        1 ZINC000053119602    0.0700
48     H48     0.6524   -0.4261   -2.8681 H        1 ZINC000053119602    0.0700
49     H49     1.8167   -3.1887   -5.1428 H        1 ZINC000053119602    0.0900
50     H50     2.8887   -3.1738   -3.7316 H        1 ZINC000053119602    0.0900
51     H51     2.2284   -5.4582   -5.8287 H        1 ZINC000053119602    0.1800
52     H52     0.6170   -9.1674   -2.4285 H        1 ZINC000053119602    0.4300
53     H53     3.0622   -8.5950   -4.9077 H        1 ZINC000053119602    0.1400
54     H54     3.7288  -10.2032   -6.6468 H        1 ZINC000053119602    0.1300
55     H55     1.5782  -11.4946   -8.7785 H        1 ZINC000053119602    0.0700
56     H56     3.2653  -11.0095   -8.4817 H        1 ZINC000053119602    0.1300
57     H57     3.0709  -12.3970  -10.5347 H        1 ZINC000053119602    0.1400
58     H58     4.0486  -13.2130   -9.2912 H        1 ZINC000053119602    0.1400
59     H59     3.5758  -15.3249  -10.3405 H        1 ZINC000053119602    0.1200
60     H60     1.8887  -15.8257  -10.6069 H        1 ZINC000053119602    0.1200
61     H61     2.5855  -14.4991  -11.5675 H        1 ZINC000053119602    0.1200
62     H62     1.4330  -15.5115   -8.2810 H        1 ZINC000053119602    0.1400
63     H63     3.1128  -14.9924   -8.0036 H        1 ZINC000053119602    0.1400
64     H64     1.6250  -14.1285   -6.2246 H        1 ZINC000053119602    0.1300
65     H65     0.6142  -13.3277   -7.4520 H        1 ZINC000053119602    0.0700
66     H66     0.4783  -12.7502   -5.5373 H        1 ZINC000053119602    0.1300
67     H67    -0.1850  -11.1443   -3.7947 H        1 ZINC000053119602    0.1300
@<TRIPOS>BOND
1     1     2     1
2     1     36    1
3     1     37    1
4     1     38    1
5     2     3     am
6     2     39    1
7     3     4     2
8     3     5     1
9     5     10    1
10    5     6     2
11    6     7     1
12    7     8     1
13    7     9     1
14    8     40    1
15    8     41    1
16    8     42    1
17    9     35    1
18    9     10    2
19    10    11    1
20    11    12    1
21    11    13    1
22    11    14    1
23    12    43    1
24    12    44    1
25    12    45    1
26    13    46    1
27    13    47    1
28    13    48    1
29    14    15    1
30    14    49    1
31    14    50    1
32    15    35    ar
33    15    16    ar
34    16    17    ar
35    16    51    1
36    17    18    ar
37    18    19    1
38    18    34    ar
39    19    20    1
40    19    52    1
41    20    33    ar
42    20    21    ar
43    21    22    ar
44    21    53    1
45    22    23    ar
46    22    54    1
47    23    24    1
48    23    32    ar
49    24    31    1
50    24    25    1
51    25    26    1
52    25    55    1
53    25    56    1
54    26    27    1
55    26    57    1
56    26    58    1
57    27    28    1
58    27    29    1
59    27    30    1
60    29    59    1
61    29    60    1
62    29    61    1
63    30    31    1
64    30    62    1
65    30    63    1
66    31    64    1
67    31    65    1
68    32    33    ar
69    32    66    1
70    33    67    1
71    34    35    ar
@<TRIPOS>SUBSTRUCTURE
1   ZINC000053119602 1     RESIDUE    1   A     ZIN   1


@<TRIPOS>MOLECULE
CC(C)(C)C1=CN=C(O1)CSC2=CN=C(S2)NC(=O)C3CCNCC3
  50   52    0    0    0
SMALL
USER_CHARGES
NO_NAME
@<TRIPOS>ATOM
    1 C1       -0.0187     1.5258     0.0104 C.3    1 <0>      -0.1400
    2 C2        0.0021    -0.0041     0.0020 C.3    1 <0>       0.0200
    3 C3        0.7421    -0.5109     1.2415 C.3    1 <0>      -0.1400
    4 C4       -1.4333    -0.5336     0.0129 C.3    1 <0>      -0.1500
    5 C5        0.7074    -0.4901    -1.2379 C.2    1 <0>      -0.0100
    6 C6        1.9790    -0.2319    -1.5855 C.2    1 <0>      -0.0400
    7 N7        2.2153    -0.8490    -2.7568 N.2    1 <0>      -0.4500
    8 C8        1.1320    -1.4698    -3.1277 C.2    1 <0>       0.1800
    9 C9        0.9742    -2.2844    -4.3857 C.3    1 <0>      -0.0300
   10 S10       1.4250    -4.0091    -4.0499 S.3    1 <0>       0.0300
   11 C11       1.1821    -4.7931    -5.6090 C.2    1 <0>      -0.2400
   12 C12       1.3800    -6.0917    -5.8751 C.2    1 <0>       0.0900
   13 N13       1.1336    -6.4631    -7.1186 N.2    1 <0>      -0.4500
   14 C14       0.7315    -5.5440    -7.9400 C.2    1 <0>       0.2800
   15 N15       0.4232    -5.7421    -9.2830 N.am   1 <0>      -0.6300
   16 C16       0.5350    -6.9706    -9.8260 C.2    1 <0>       0.5100
   17 O17       0.9041    -7.9036    -9.1444 O.2    1 <0>      -0.4500
   18 C18       0.2013    -7.1850   -11.2798 C.3    1 <0>      -0.1200
   19 C19       1.1196    -6.3209   -12.1489 C.3    1 <0>      -0.1500
   20 C20       0.8296    -6.6028   -13.6247 C.3    1 <0>       0.0000
   21 N21       1.0733    -8.0212   -13.9128 N.4    1 <0>      -0.5100
   22 H22       0.9330    -8.1924   -14.8972 H      1 <0>       0.4400
   23 H23       2.0226    -8.2557   -13.6636 H      1 <0>       0.4300
   24 C24       0.1469    -8.8536   -13.1360 C.3    1 <0>      -0.0100
   25 C25       0.4105    -8.6584   -11.6414 C.3    1 <0>      -0.1300
   26 S26       0.6295    -4.0067    -7.0863 S.3    1 <0>       0.1000
   27 O27       0.1830    -1.2702    -2.2034 O.3    1 <0>      -0.1900
   28 H28       1.0039     1.9031     0.0027 H      1 <0>       0.0600
   29 H29      -0.5459     1.8868    -0.8726 H      1 <0>       0.0600
   30 H30      -0.5289     1.8773     0.9072 H      1 <0>       0.0800
   31 H31       0.2319    -0.1594     2.1383 H      1 <0>       0.0800
   32 H32       0.7568    -1.6008     1.2356 H      1 <0>       0.0600
   33 H33       1.7647    -0.1336     1.2338 H      1 <0>       0.0600
   34 H34      -1.9605    -0.1726    -0.8702 H      1 <0>       0.0600
   35 H35      -1.4185    -1.6235     0.0069 H      1 <0>       0.0600
   36 H36      -1.9435    -0.1821     0.9097 H      1 <0>       0.0700
   37 H37       2.6845     0.3639    -1.0254 H      1 <0>       0.1900
   38 H38      -0.0619    -2.2383    -4.7209 H      1 <0>       0.1200
   39 H39       1.6255    -1.8832    -5.1623 H      1 <0>       0.1300
   40 H40       1.7189    -6.7883    -5.1226 H      1 <0>       0.1900
   41 H41       0.1280    -4.9960    -9.8280 H      1 <0>       0.4200
   42 H42      -0.8379    -6.9097   -11.4597 H      1 <0>       0.1200
   43 H43       0.9363    -5.2676   -11.9366 H      1 <0>       0.1200
   44 H44       2.1599    -6.5614   -11.9300 H      1 <0>       0.1000
   45 H45      -0.2108    -6.3618   -13.8426 H      1 <0>       0.1400
   46 H46       1.4816    -5.9890   -14.2462 H      1 <0>       0.1400
   47 H47      -0.8790    -8.5646   -13.3643 H      1 <0>       0.1300
   48 H48       0.2948    -9.9015   -13.3967 H      1 <0>       0.1400
   49 H49       1.4362    -8.9473   -11.4119 H      1 <0>       0.1000
   50 H50      -0.2795    -9.2758   -11.0663 H      1 <0>       0.1200
@<TRIPOS>BOND
   1    1    2 1
   2    1   28 1
   3    1   29 1
   4    1   30 1
   5    2    3 1
   6    2    4 1
   7    2    5 1
   8    3   31 1
   9    3   32 1
  10    3   33 1
  11    4   34 1
  12    4   35 1
  13    4   36 1
  14    5   27 1
  15    5    6 2
  16    6    7 1
  17    6   37 1
  18    7    8 2
  19    8    9 1
  20    8   27 1
  21    9   10 1
  22    9   38 1
  23    9   39 1
  24   10   11 1
  25   11   26 1
  26   11   12 2
  27   12   13 1
  28   12   40 1
  29   13   14 2
  30   14   15 1
  31   14   26 1
  32   15   16 am
  33   15   41 1
  34   16   17 2
  35   16   18 1
  36   18   25 1
  37   18   19 1
  38   18   42 1
  39   19   20 1
  40   19   43 1
  41   19   44 1
  42   20   21 1
  43   20   45 1
  44   20   46 1
  45   21   22 1
  46   21   23 1
  47   21   24 1
  48   24   25 1
  49   24   47 1
  50   24   48 1
  51   25   49 1
  52   25   50 1


@<TRIPOS>MOLECULE
C1CNCCC1NC(=O)C2=C(C=NN2)NC(=O)C3=C(C=CC=C3Cl)Cl
43    45    1     0     0
SMALL
USER_CHARGES
@<TRIPOS>ATOM
1      O1      0.0021   -0.0041    0.0020 O.2      1 ZINC000016052857   -0.5300
2      C2     -0.0144    1.2117    0.0087 C.2      1 ZINC000016052857    0.6200
3      N3      1.1435    1.9014    0.0014 N.am     1 ZINC000016052857   -0.7200
4      C4      2.4220    1.1863   -0.0147 C.3      1 ZINC000016052857    0.1400
5      C5      2.7986    0.8429   -1.4588 C.3      1 ZINC000016052857   -0.1600
6      C6      4.1714    0.1673   -1.4753 C.3      1 ZINC000016052857    0.0000
7      N7      5.1751    1.0766   -0.9093 N.4      1 ZINC000016052857   -0.5100
8      H8      6.0871    0.6494   -0.9706 H        1 ZINC000016052857    0.4300
9      H9      5.1745    1.9418   -1.4285 H        1 ZINC000016052857    0.4300
10     C10     4.8596    1.3533    0.4973 C.3      1 ZINC000016052857    0.0000
11     C11     3.5133    2.0746    0.5896 C.3      1 ZINC000016052857   -0.1600
12     C12    -1.3017    1.9318    0.0187 C.2      1 ZINC000016052857   -0.0500
13     N13    -1.4682    3.2403    0.0208 N.2      1 ZINC000016052857   -0.2400
14     N14    -2.7196    3.5295    0.0295 N.pl3    1 ZINC000016052857   -0.3600
15     C15    -3.4637    2.3937    0.0337 C.2      1 ZINC000016052857   -0.0200
16     C16    -2.5949    1.3478    0.0217 C.2      1 ZINC000016052857    0.0900
17     N17    -2.9102   -0.0191    0.0201 N.am     1 ZINC000016052857   -0.6200
18     C18    -4.1990   -0.4134    0.0319 C.2      1 ZINC000016052857    0.5700
19     O19    -5.0883    0.4157    0.0438 O.2      1 ZINC000016052857   -0.5000
20     C20    -4.5309   -1.8523    0.0302 C.ar     1 ZINC000016052857   -0.1200
21     C21    -4.6821   -2.5395    1.2376 C.ar     1 ZINC000016052857    0.0000
22     Cl22   -4.4808   -1.7038    2.7458 Cl       1 ZINC000016052857   -0.0400
23     C23    -4.9925   -3.8851    1.2279 C.ar     1 ZINC000016052857   -0.1000
24     C24    -5.1533   -4.5528    0.0271 C.ar     1 ZINC000016052857   -0.0700
25     C25    -5.0053   -3.8794   -1.1721 C.ar     1 ZINC000016052857   -0.1000
26     C26    -4.7011   -2.5324   -1.1788 C.ar     1 ZINC000016052857    0.0000
27     Cl27   -4.5163   -1.6893   -2.6850 Cl       1 ZINC000016052857   -0.0400
28     H28     1.1303    2.8713    0.0067 H        1 ZINC000016052857    0.4100
29     H29     2.3341    0.2694    0.5681 H        1 ZINC000016052857    0.1100
30     H30     2.0545    0.1655   -1.8778 H        1 ZINC000016052857    0.1200
31     H31     2.8353    1.7564   -2.0524 H        1 ZINC000016052857    0.0900
32     H32     4.1335   -0.7461   -0.8817 H        1 ZINC000016052857    0.1300
33     H33     4.4426   -0.0787   -2.5020 H        1 ZINC000016052857    0.1400
34     H34     4.8070    0.4146    1.0488 H        1 ZINC000016052857    0.1400
35     H35     5.6388    1.9830    0.9269 H        1 ZINC000016052857    0.1400
36     H36     3.5648    3.0136    0.0386 H        1 ZINC000016052857    0.1000
37     H37     3.2800    2.2775    1.6349 H        1 ZINC000016052857    0.1200
38     H38    -3.0811    4.4297    0.0332 H        1 ZINC000016052857    0.4600
39     H39    -4.5419    2.3326    0.0410 H        1 ZINC000016052857    0.2100
40     H40    -2.2008   -0.6805    0.0106 H        1 ZINC000016052857    0.4300
41     H41    -5.1097   -4.4176    2.1602 H        1 ZINC000016052857    0.1500
42     H42    -5.3954   -5.6053    0.0259 H        1 ZINC000016052857    0.1500
43     H43    -5.1324   -4.4075   -2.1056 H        1 ZINC000016052857    0.1500
@<TRIPOS>BOND
1     1     2     2
2     2     3     am
3     2     12    1
4     3     4     1
5     3     28    1
6     4     11    1
7     4     5     1
8     4     29    1
9     5     6     1
10    5     30    1
11    5     31    1
12    6     7     1
13    6     32    1
14    6     33    1
15    7     8     1
16    7     9     1
17    7     10    1
18    10    11    1
19    10    34    1
20    10    35    1
21    11    36    1
22    11    37    1
23    12    16    1
24    12    13    2
25    13    14    1
26    14    15    1
27    14    38    1
28    15    16    2
29    15    39    1
30    16    17    1
31    17    18    am
32    17    40    1
33    18    19    2
34    18    20    1
35    20    26    ar
36    20    21    ar
37    21    22    1
38    21    23    ar
39    23    24    ar
40    23    41    1
41    24    25    ar
42    24    42    1
43    25    26    ar
44    25    43    1
45    26    27    1
@<TRIPOS>SUBSTRUCTURE
1   ZINC000016052857 1     RESIDUE    1   A     ZIN   1


@<TRIPOS>MOLECULE
C1C(C(OC2=CC(=CC(=C21)O)O)C3=CC(=C(C=C3)O)O)O
  35   37    0    0    0
SMALL
USER_CHARGES
NO_NAME
@<TRIPOS>ATOM
    1 O1       -0.0164     1.3547     0.0095 O.3    1 <0>      -0.4900
    2 C2        0.0021    -0.0041     0.0020 C.ar   1 <0>       0.1600
    3 C3        0.0058    -0.6918    -1.2020 C.ar   1 <0>      -0.2000
    4 C4        0.0269    -2.0771    -1.2051 C.ar   1 <0>       0.1600
    5 O5        0.0309    -2.7511    -2.3852 O.3    1 <0>      -0.4900
    6 C6        0.0446    -2.7805    -0.0063 C.ar   1 <0>      -0.1900
    7 C7        0.0785    -4.2873    -0.0509 C.3    1 <0>      -0.1000
    8 C8       -0.3431    -4.8530     1.3074 C.3    1 <0>       0.0800
    9 H9       -0.1164    -5.9184     1.3480 H      1 <0>       0.0800
   10 O10      -1.7447    -4.6513     1.4991 O.3    1 <0>      -0.5500
   11 C11       0.4406    -4.1155     2.4006 C.3    1 <0>       0.1500
   12 H12       1.5095    -4.1919     2.2011 H      1 <0>       0.1000
   13 C13       0.1306    -4.7226     3.7447 C.ar   1 <0>      -0.0800
   14 C14      -1.0389    -4.3863     4.3999 C.ar   1 <0>      -0.0600
   15 C15      -1.3278    -4.9403     5.6336 C.ar   1 <0>      -0.1400
   16 C16      -0.4442    -5.8347     6.2151 C.ar   1 <0>       0.0900
   17 O17      -0.7270    -6.3808     7.4281 O.3    1 <0>      -0.4900
   18 C18       0.7334    -6.1737     5.5550 C.ar   1 <0>       0.0800
   19 O19       1.6037    -7.0517     6.1217 O.3    1 <0>      -0.4900
   20 C20       1.0142    -5.6191     4.3171 C.ar   1 <0>      -0.1200
   21 O21       0.0461    -2.7430     2.3894 O.3    1 <0>      -0.2900
   22 C22       0.0364    -2.0947     1.1955 C.ar   1 <0>       0.1800
   23 C23       0.0229    -0.7042     1.1973 C.ar   1 <0>      -0.1800
   24 H24       0.8616     1.7600     0.0033 H      1 <0>       0.4000
   25 H25      -0.0082    -0.1487    -2.1354 H      1 <0>       0.1400
   26 H26       0.9153    -2.9326    -2.7315 H      1 <0>       0.3900
   27 H27      -0.6067    -4.6429    -0.8204 H      1 <0>       0.0900
   28 H28       1.0897    -4.6205    -0.2846 H      1 <0>       0.0900
   29 H29      -2.2985    -5.0773     0.8306 H      1 <0>       0.3800
   30 H30      -1.7286    -3.6891     3.9475 H      1 <0>       0.1400
   31 H31      -2.2420    -4.6753     6.1438 H      1 <0>       0.1400
   32 H32      -1.2246    -7.2085     7.3804 H      1 <0>       0.3900
   33 H33       1.4393    -7.9753     5.8870 H      1 <0>       0.3900
   34 H34       1.9272    -5.8805     3.8028 H      1 <0>       0.1400
   35 H35       0.0241    -0.1677     2.1346 H      1 <0>       0.1400
@<TRIPOS>BOND
   1    1    2 1
   2    1   24 1
   3    2   23 ar
   4    2    3 ar
   5    3    4 ar
   6    3   25 1
   7    4    5 1
   8    4    6 ar
   9    5   26 1
  10    6   22 ar
  11    6    7 1
  12    7    8 1
  13    7   27 1
  14    7   28 1
  15    8    9 1
  16    8   10 1
  17    8   11 1
  18   10   29 1
  19   11   12 1
  20   11   13 1
  21   11   21 1
  22   13   20 ar
  23   13   14 ar
  24   14   15 ar
  25   14   30 1
  26   15   16 ar
  27   15   31 1
  28   16   17 1
  29   16   18 ar
  30   17   32 1
  31   18   19 1
  32   18   20 ar
  33   19   33 1
  34   20   34 1
  35   21   22 1
  36   22   23 ar
  37   23   35 1


@<TRIPOS>MOLECULE
C1CNCCC1NC(=O)C2=C(C=NN2)NC(=O)C3=C(C=CC=C3Cl)Cl
43    45    1     0     0
SMALL
USER_CHARGES
@<TRIPOS>ATOM
1      O1      0.0021   -0.0041    0.0020 O.2      1 ZINC000016052857   -0.5300
2      C2     -0.0144    1.2117    0.0087 C.2      1 ZINC000016052857    0.6200
3      N3      1.1435    1.9014    0.0014 N.am     1 ZINC000016052857   -0.7200
4      C4      2.4220    1.1863   -0.0147 C.3      1 ZINC000016052857    0.1400
5      C5      2.7986    0.8429   -1.4588 C.3      1 ZINC000016052857   -0.1600
6      C6      4.1714    0.1673   -1.4753 C.3      1 ZINC000016052857    0.0000
7      N7      5.1751    1.0766   -0.9093 N.4      1 ZINC000016052857   -0.5100
8      H8      6.0871    0.6494   -0.9706 H        1 ZINC000016052857    0.4300
9      H9      5.1745    1.9418   -1.4285 H        1 ZINC000016052857    0.4300
10     C10     4.8596    1.3533    0.4973 C.3      1 ZINC000016052857    0.0000
11     C11     3.5133    2.0746    0.5896 C.3      1 ZINC000016052857   -0.1600
12     C12    -1.3017    1.9318    0.0187 C.2      1 ZINC000016052857   -0.0500
13     N13    -1.4682    3.2403    0.0208 N.2      1 ZINC000016052857   -0.2400
14     N14    -2.7196    3.5295    0.0295 N.pl3    1 ZINC000016052857   -0.3600
15     C15    -3.4637    2.3937    0.0337 C.2      1 ZINC000016052857   -0.0200
16     C16    -2.5949    1.3478    0.0217 C.2      1 ZINC000016052857    0.0900
17     N17    -2.9102   -0.0191    0.0201 N.am     1 ZINC000016052857   -0.6200
18     C18    -4.1990   -0.4134    0.0319 C.2      1 ZINC000016052857    0.5700
19     O19    -5.0883    0.4157    0.0438 O.2      1 ZINC000016052857   -0.5000
20     C20    -4.5309   -1.8523    0.0302 C.ar     1 ZINC000016052857   -0.1200
21     C21    -4.6821   -2.5395    1.2376 C.ar     1 ZINC000016052857    0.0000
22     Cl22   -4.4808   -1.7038    2.7458 Cl       1 ZINC000016052857   -0.0400
23     C23    -4.9925   -3.8851    1.2279 C.ar     1 ZINC000016052857   -0.1000
24     C24    -5.1533   -4.5528    0.0271 C.ar     1 ZINC000016052857   -0.0700
25     C25    -5.0053   -3.8794   -1.1721 C.ar     1 ZINC000016052857   -0.1000
26     C26    -4.7011   -2.5324   -1.1788 C.ar     1 ZINC000016052857    0.0000
27     Cl27   -4.5163   -1.6893   -2.6850 Cl       1 ZINC000016052857   -0.0400
28     H28     1.1303    2.8713    0.0067 H        1 ZINC000016052857    0.4100
29     H29     2.3341    0.2694    0.5681 H        1 ZINC000016052857    0.1100
30     H30     2.0545    0.1655   -1.8778 H        1 ZINC000016052857    0.1200
31     H31     2.8353    1.7564   -2.0524 H        1 ZINC000016052857    0.0900
32     H32     4.1335   -0.7461   -0.8817 H        1 ZINC000016052857    0.1300
33     H33     4.4426   -0.0787   -2.5020 H        1 ZINC000016052857    0.1400
34     H34     4.8070    0.4146    1.0488 H        1 ZINC000016052857    0.1400
35     H35     5.6388    1.9830    0.9269 H        1 ZINC000016052857    0.1400
36     H36     3.5648    3.0136    0.0386 H        1 ZINC000016052857    0.1000
37     H37     3.2800    2.2775    1.6349 H        1 ZINC000016052857    0.1200
38     H38    -3.0811    4.4297    0.0332 H        1 ZINC000016052857    0.4600
39     H39    -4.5419    2.3326    0.0410 H        1 ZINC000016052857    0.2100
40     H40    -2.2008   -0.6805    0.0106 H        1 ZINC000016052857    0.4300
41     H41    -5.1097   -4.4176    2.1602 H        1 ZINC000016052857    0.1500
42     H42    -5.3954   -5.6053    0.0259 H        1 ZINC000016052857    0.1500
43     H43    -5.1324   -4.4075   -2.1056 H        1 ZINC000016052857    0.1500
@<TRIPOS>BOND
1     1     2     2
2     2     3     am
3     2     12    1
4     3     4     1
5     3     28    1
6     4     11    1
7     4     5     1
8     4     29    1
9     5     6     1
10    5     30    1
11    5     31    1
12    6     7     1
13    6     32    1
14    6     33    1
15    7     8     1
16    7     9     1
17    7     10    1
18    10    11    1
19    10    34    1
20    10    35    1
21    11    36    1
22    11    37    1
23    12    16    1
24    12    13    2
25    13    14    1
26    14    15    1
27    14    38    1
28    15    16    2
29    15    39    1
30    16    17    1
31    17    18    am
32    17    40    1
33    18    19    2
34    18    20    1
35    20    26    ar
36    20    21    ar
37    21    22    1
38    21    23    ar
39    23    24    ar
40    23    41    1
41    24    25    ar
42    24    42    1
43    25    26    ar
44    25    43    1
45    26    27    1
@<TRIPOS>SUBSTRUCTURE
1   ZINC000016052857 1     RESIDUE    1   A     ZIN   1


@<TRIPOS>MOLECULE
CC1(CC2=CN=C(N=C2C3=C1C(=NN3C)C(=O)NC)NC4=CC=C(C=C4)N5CCN(CC5)C)C
67    71    1     0     0
SMALL
USER_CHARGES
@<TRIPOS>ATOM
1      C1      1.0328    1.2816    0.1852 C.3      1 ZINC000053119602    0.0900
2      N2      1.2207   -0.1608    0.0106 N.am     1 ZINC000053119602   -0.7200
3      C3      0.2474   -0.9038   -0.5525 C.2      1 ZINC000053119602    0.6100
4      O4     -0.7864   -0.3772   -0.9155 O.2      1 ZINC000053119602   -0.5200
5      C5      0.4369   -2.3585   -0.7287 C.2      1 ZINC000053119602    0.0000
6      N6      0.3685   -3.2816    0.2191 N.2      1 ZINC000053119602   -0.2400
7      N7      0.5844   -4.4545   -0.2752 N.pl3    1 ZINC000053119602   -0.2500
8      C8      0.5735   -5.7057    0.4869 C.3      1 ZINC000053119602    0.0900
9      C9      0.8208   -4.3543   -1.5975 C.2      1 ZINC000053119602    0.0300
10     C10     0.7156   -3.0191   -1.9253 C.2      1 ZINC000053119602   -0.1100
11     C11     0.8855   -2.5174   -3.3296 C.3      1 ZINC000053119602    0.0100
12     C12    -0.4646   -2.5495   -4.0487 C.3      1 ZINC000053119602   -0.1400
13     C13     1.4110   -1.0809   -3.2970 C.3      1 ZINC000053119602   -0.1500
14     C14     1.8811   -3.4058   -4.0766 C.3      1 ZINC000053119602   -0.0600
15     C15     1.6189   -4.8679   -3.8619 C.ar     1 ZINC000053119602   -0.2000
16     C16     1.8653   -5.7855   -4.8656 C.ar     1 ZINC000053119602    0.1900
17     N17     1.6500   -7.0713   -4.6315 N.ar     1 ZINC000053119602   -0.5600
18     C18     1.2077   -7.4947   -3.4560 C.ar     1 ZINC000053119602    0.5600
19     N19     1.0150   -8.8514   -3.2547 N.pl3    1 ZINC000053119602   -0.6400
20     C20     1.3949   -9.7673   -4.2444 C.ar     1 ZINC000053119602    0.1700
21     C21     2.4975   -9.5051   -5.0467 C.ar     1 ZINC000053119602   -0.0900
22     C22     2.8717  -10.4075   -6.0224 C.ar     1 ZINC000053119602   -0.1000
23     C23     2.1455  -11.5778   -6.2011 C.ar     1 ZINC000053119602    0.0600
24     N24     2.5250  -12.4927   -7.1897 N.3      1 ZINC000053119602   -0.4800
25     C25     2.5729  -11.8508   -8.5110 C.3      1 ZINC000053119602    0.0300
26     C26     3.0482  -12.8672   -9.5516 C.3      1 ZINC000053119602    0.0000
27     N27     2.1261  -14.0102   -9.5766 N.4      1 ZINC000053119602   -0.3900
28     H28     1.1978  -13.6883   -9.8063 H        1 ZINC000053119602    0.4200
29     C29     2.5728  -14.9773  -10.5881 C.3      1 ZINC000053119602   -0.0500
30     C30     2.1077  -14.6557   -8.2573 C.3      1 ZINC000053119602    0.0000
31     C31     1.6246  -13.6542   -7.2060 C.3      1 ZINC000053119602    0.0200
32     C32     1.0431  -11.8402   -5.3984 C.ar     1 ZINC000053119602   -0.1400
33     C33     0.6721  -10.9401   -4.4192 C.ar     1 ZINC000053119602   -0.1200
34     N34     0.9456   -6.6495   -2.4676 N.ar     1 ZINC000053119602   -0.5500
35     C35     1.1199   -5.3502   -2.6408 C.ar     1 ZINC000053119602    0.3000
36     H36     0.8749    1.7478   -0.7873 H        1 ZINC000053119602    0.0700
37     H37     0.1645    1.4607    0.8193 H        1 ZINC000053119602    0.0600
38     H38     1.9192    1.7094    0.6536 H        1 ZINC000053119602    0.0800
39     H39     2.0456   -0.5810    0.3002 H        1 ZINC000053119602    0.4100
40     H40    -0.4341   -6.1215    0.4882 H        1 ZINC000053119602    0.0900
41     H41     1.2595   -6.4171    0.0271 H        1 ZINC000053119602    0.1000
42     H42     0.8869   -5.5094    1.5122 H        1 ZINC000053119602    0.1000
43     H43    -1.1737   -1.9136   -3.5187 H        1 ZINC000053119602    0.0700
44     H44    -0.3418   -2.1852   -5.0686 H        1 ZINC000053119602    0.0700
45     H45    -0.8402   -3.5725   -4.0710 H        1 ZINC000053119602    0.0500
46     H46     2.3142   -1.0381   -2.6883 H        1 ZINC000053119602    0.0600
47     H47     1.6409   -0.7549   -4.3114 H        1 ZINC000053119602    0.0700
48     H48     0.6524   -0.4261   -2.8681 H        1 ZINC000053119602    0.0700
49     H49     1.8167   -3.1887   -5.1428 H        1 ZINC000053119602    0.0900
50     H50     2.8887   -3.1738   -3.7316 H        1 ZINC000053119602    0.0900
51     H51     2.2284   -5.4582   -5.8287 H        1 ZINC000053119602    0.1800
52     H52     0.6170   -9.1674   -2.4285 H        1 ZINC000053119602    0.4300
53     H53     3.0622   -8.5950   -4.9077 H        1 ZINC000053119602    0.1400
54     H54     3.7288  -10.2032   -6.6468 H        1 ZINC000053119602    0.1300
55     H55     1.5782  -11.4946   -8.7785 H        1 ZINC000053119602    0.0700
56     H56     3.2653  -11.0095   -8.4817 H        1 ZINC000053119602    0.1300
57     H57     3.0709  -12.3970  -10.5347 H        1 ZINC000053119602    0.1400
58     H58     4.0486  -13.2130   -9.2912 H        1 ZINC000053119602    0.1400
59     H59     3.5758  -15.3249  -10.3405 H        1 ZINC000053119602    0.1200
60     H60     1.8887  -15.8257  -10.6069 H        1 ZINC000053119602    0.1200
61     H61     2.5855  -14.4991  -11.5675 H        1 ZINC000053119602    0.1200
62     H62     1.4330  -15.5115   -8.2810 H        1 ZINC000053119602    0.1400
63     H63     3.1128  -14.9924   -8.0036 H        1 ZINC000053119602    0.1400
64     H64     1.6250  -14.1285   -6.2246 H        1 ZINC000053119602    0.1300
65     H65     0.6142  -13.3277   -7.4520 H        1 ZINC000053119602    0.0700
66     H66     0.4783  -12.7502   -5.5373 H        1 ZINC000053119602    0.1300
67     H67    -0.1850  -11.1443   -3.7947 H        1 ZINC000053119602    0.1300
@<TRIPOS>BOND
1     1     2     1
2     1     36    1
3     1     37    1
4     1     38    1
5     2     3     am
6     2     39    1
7     3     4     2
8     3     5     1
9     5     10    1
10    5     6     2
11    6     7     1
12    7     8     1
13    7     9     1
14    8     40    1
15    8     41    1
16    8     42    1
17    9     35    1
18    9     10    2
19    10    11    1
20    11    12    1
21    11    13    1
22    11    14    1
23    12    43    1
24    12    44    1
25    12    45    1
26    13    46    1
27    13    47    1
28    13    48    1
29    14    15    1
30    14    49    1
31    14    50    1
32    15    35    ar
33    15    16    ar
34    16    17    ar
35    16    51    1
36    17    18    ar
37    18    19    1
38    18    34    ar
39    19    20    1
40    19    52    1
41    20    33    ar
42    20    21    ar
43    21    22    ar
44    21    53    1
45    22    23    ar
46    22    54    1
47    23    24    1
48    23    32    ar
49    24    31    1
50    24    25    1
51    25    26    1
52    25    55    1
53    25    56    1
54    26    27    1
55    26    57    1
56    26    58    1
57    27    28    1
58    27    29    1
59    27    30    1
60    29    59    1
61    29    60    1
62    29    61    1
63    30    31    1
64    30    62    1
65    30    63    1
66    31    64    1
67    31    65    1
68    32    33    ar
69    32    66    1
70    33    67    1
71    34    35    ar
@<TRIPOS>SUBSTRUCTURE
1   ZINC000053119602 1     RESIDUE    1   A     ZIN   1


@<TRIPOS>MOLECULE
CCC(CO)NC1=NC(=C2C(=N1)N(C=N2)C(C)C)NCC3=CC=CC=C3
52    54    1     0     0
SMALL
USER_CHARGES
@<TRIPOS>ATOM
1      C1     -0.0187    1.5258    0.0104 C.3      1 ZINC000000602192   -0.1500
2      C2      0.0021   -0.0041    0.0020 C.3      1 ZINC000000602192   -0.1300
3      C3      0.7182   -0.4975   -1.2568 C.3      1 ZINC000000602192    0.1700
4      H4      1.7103   -0.0491   -1.3098 H        1 ZINC000000602192    0.1000
5      C5      0.8493   -2.0210   -1.2049 C.3      1 ZINC000000602192    0.0600
6      O6     -0.4420   -2.6041   -1.0184 O.3      1 ZINC000000602192   -0.5700
7      N7     -0.0549   -0.1139   -2.4405 N.pl3    1 ZINC000000602192   -0.6800
8      C8      0.5781    0.0318   -3.6639 C.ar     1 ZINC000000602192    0.6300
9      N9      1.8847   -0.1868   -3.7392 N.ar     1 ZINC000000602192   -0.6300
10     C10     2.5369   -0.0601   -4.8895 C.ar     1 ZINC000000602192    0.5400
11     N11     3.8995   -0.2906   -4.9584 N.pl3    1 ZINC000000602192   -0.6900
12     C12     4.6385   -0.6790   -3.7545 C.3      1 ZINC000000602192    0.1700
13     C13     6.0937   -0.8680   -4.0975 C.ar     1 ZINC000000602192   -0.1100
14     C14     6.5525   -2.1067   -4.5050 C.ar     1 ZINC000000602192   -0.1000
15     C15     7.8874   -2.2801   -4.8196 C.ar     1 ZINC000000602192   -0.1200
16     C16     8.7633   -1.2147   -4.7272 C.ar     1 ZINC000000602192   -0.1100
17     C17     8.3043    0.0242   -4.3206 C.ar     1 ZINC000000602192   -0.1200
18     C18     6.9686    0.1986   -4.0101 C.ar     1 ZINC000000602192   -0.1000
19     C19     1.8131    0.3127   -6.0351 C.ar     1 ZINC000000602192   -0.1600
20     N20     2.1344    0.5309   -7.3342 N.2      1 ZINC000000602192   -0.4500
21     C21     1.0643    0.8633   -7.9950 C.2      1 ZINC000000602192    0.2300
22     N22    -0.0135    0.8793   -7.1584 N.pl3    1 ZINC000000602192   -0.4700
23     C23    -1.3930    1.2055   -7.5281 C.3      1 ZINC000000602192    0.1300
24     C24    -1.4491    2.6303   -8.0827 C.3      1 ZINC000000602192   -0.1600
25     C25    -1.8810    0.2234   -8.5949 C.3      1 ZINC000000602192   -0.1600
26     C26     0.4318    0.5337   -5.9076 C.ar     1 ZINC000000602192    0.3500
27     N27    -0.1418    0.3790   -4.7185 N.ar     1 ZINC000000602192   -0.6200
28     H28     1.0039    1.9031    0.0027 H        1 ZINC000000602192    0.0500
29     H29    -0.5459    1.8868   -0.8726 H        1 ZINC000000602192    0.0600
30     H30    -0.5289    1.8773    0.9072 H        1 ZINC000000602192    0.0600
31     H31     0.5293   -0.3651    0.8851 H        1 ZINC000000602192    0.0800
32     H32    -1.0205   -0.3814    0.0098 H        1 ZINC000000602192    0.0800
33     H33     1.2788   -2.3807   -2.1399 H        1 ZINC000000602192    0.0500
34     H34     1.4980   -2.3018   -0.3753 H        1 ZINC000000602192    0.0500
35     H35    -0.4349   -3.5701   -0.9761 H        1 ZINC000000602192    0.3800
36     H36    -1.0102    0.0381   -2.3676 H        1 ZINC000000602192    0.4100
37     H37     4.3654   -0.1951   -5.8038 H        1 ZINC000000602192    0.4200
38     H38     4.5414    0.1023   -3.0007 H        1 ZINC000000602192    0.0800
39     H39     4.2328   -1.6126   -3.3646 H        1 ZINC000000602192    0.0800
40     H40     5.8681   -2.9391   -4.5772 H        1 ZINC000000602192    0.1200
41     H41     8.2460   -3.2481   -5.1372 H        1 ZINC000000602192    0.1200
42     H42     9.8063   -1.3504   -4.9723 H        1 ZINC000000602192    0.1200
43     H43     8.9887    0.8565   -4.2480 H        1 ZINC000000602192    0.1200
44     H44     6.6100    1.1665   -3.6924 H        1 ZINC000000602192    0.1200
45     H45     1.0336    1.0929   -9.0498 H        1 ZINC000000602192    0.2100
46     H46    -2.0319    1.1329   -6.6479 H        1 ZINC000000602192    0.1100
47     H47    -0.8102    2.7029   -8.9629 H        1 ZINC000000602192    0.0700
48     H48    -2.4755    2.8731   -8.3578 H        1 ZINC000000602192    0.0800
49     H49    -1.1014    3.3300   -7.3227 H        1 ZINC000000602192    0.0600
50     H50    -1.8411   -0.7917   -8.1997 H        1 ZINC000000602192    0.0600
51     H51    -2.9075    0.4661   -8.8699 H        1 ZINC000000602192    0.0800
52     H52    -1.2422    0.2960   -9.4750 H        1 ZINC000000602192    0.0700
@<TRIPOS>BOND
1     1     2     1
2     1     28    1
3     1     29    1
4     1     30    1
5     2     3     1
6     2     31    1
7     2     32    1
8     3     4     1
9     3     5     1
10    3     7     1
11    5     6     1
12    5     33    1
13    5     34    1
14    6     35    1
15    7     8     1
16    7     36    1
17    8     27    ar
18    8     9     ar
19    9     10    ar
20    10    11    1
21    10    19    ar
22    11    12    1
23    11    37    1
24    12    13    1
25    12    38    1
26    12    39    1
27    13    18    ar
28    13    14    ar
29    14    15    ar
30    14    40    1
31    15    16    ar
32    15    41    1
33    16    17    ar
34    16    42    1
35    17    18    ar
36    17    43    1
37    18    44    1
38    19    26    ar
39    19    20    1
40    20    21    2
41    21    22    1
42    21    45    1
43    22    23    1
44    22    26    1
45    23    24    1
46    23    25    1
47    23    46    1
48    24    47    1
49    24    48    1
50    24    49    1
51    25    50    1
52    25    51    1
53    25    52    1
54    26    27    ar
@<TRIPOS>SUBSTRUCTURE
1   ZINC000000602192 1     RESIDUE    1   A     ZIN   1


@<TRIPOS>MOLECULE
C1CNCCC1NC(=O)C2=C(C=NN2)NC(=O)C3=C(C=CC=C3Cl)Cl
43    45    1     0     0
SMALL
USER_CHARGES
@<TRIPOS>ATOM
1      O1      0.0021   -0.0041    0.0020 O.2      1 ZINC000016052857   -0.5300
2      C2     -0.0144    1.2117    0.0087 C.2      1 ZINC000016052857    0.6200
3      N3      1.1435    1.9014    0.0014 N.am     1 ZINC000016052857   -0.7200
4      C4      2.4220    1.1863   -0.0147 C.3      1 ZINC000016052857    0.1400
5      C5      2.7986    0.8429   -1.4588 C.3      1 ZINC000016052857   -0.1600
6      C6      4.1714    0.1673   -1.4753 C.3      1 ZINC000016052857    0.0000
7      N7      5.1751    1.0766   -0.9093 N.4      1 ZINC000016052857   -0.5100
8      H8      6.0871    0.6494   -0.9706 H        1 ZINC000016052857    0.4300
9      H9      5.1745    1.9418   -1.4285 H        1 ZINC000016052857    0.4300
10     C10     4.8596    1.3533    0.4973 C.3      1 ZINC000016052857    0.0000
11     C11     3.5133    2.0746    0.5896 C.3      1 ZINC000016052857   -0.1600
12     C12    -1.3017    1.9318    0.0187 C.2      1 ZINC000016052857   -0.0500
13     N13    -1.4682    3.2403    0.0208 N.2      1 ZINC000016052857   -0.2400
14     N14    -2.7196    3.5295    0.0295 N.pl3    1 ZINC000016052857   -0.3600
15     C15    -3.4637    2.3937    0.0337 C.2      1 ZINC000016052857   -0.0200
16     C16    -2.5949    1.3478    0.0217 C.2      1 ZINC000016052857    0.0900
17     N17    -2.9102   -0.0191    0.0201 N.am     1 ZINC000016052857   -0.6200
18     C18    -4.1990   -0.4134    0.0319 C.2      1 ZINC000016052857    0.5700
19     O19    -5.0883    0.4157    0.0438 O.2      1 ZINC000016052857   -0.5000
20     C20    -4.5309   -1.8523    0.0302 C.ar     1 ZINC000016052857   -0.1200
21     C21    -4.6821   -2.5395    1.2376 C.ar     1 ZINC000016052857    0.0000
22     Cl22   -4.4808   -1.7038    2.7458 Cl       1 ZINC000016052857   -0.0400
23     C23    -4.9925   -3.8851    1.2279 C.ar     1 ZINC000016052857   -0.1000
24     C24    -5.1533   -4.5528    0.0271 C.ar     1 ZINC000016052857   -0.0700
25     C25    -5.0053   -3.8794   -1.1721 C.ar     1 ZINC000016052857   -0.1000
26     C26    -4.7011   -2.5324   -1.1788 C.ar     1 ZINC000016052857    0.0000
27     Cl27   -4.5163   -1.6893   -2.6850 Cl       1 ZINC000016052857   -0.0400
28     H28     1.1303    2.8713    0.0067 H        1 ZINC000016052857    0.4100
29     H29     2.3341    0.2694    0.5681 H        1 ZINC000016052857    0.1100
30     H30     2.0545    0.1655   -1.8778 H        1 ZINC000016052857    0.1200
31     H31     2.8353    1.7564   -2.0524 H        1 ZINC000016052857    0.0900
32     H32     4.1335   -0.7461   -0.8817 H        1 ZINC000016052857    0.1300
33     H33     4.4426   -0.0787   -2.5020 H        1 ZINC000016052857    0.1400
34     H34     4.8070    0.4146    1.0488 H        1 ZINC000016052857    0.1400
35     H35     5.6388    1.9830    0.9269 H        1 ZINC000016052857    0.1400
36     H36     3.5648    3.0136    0.0386 H        1 ZINC000016052857    0.1000
37     H37     3.2800    2.2775    1.6349 H        1 ZINC000016052857    0.1200
38     H38    -3.0811    4.4297    0.0332 H        1 ZINC000016052857    0.4600
39     H39    -4.5419    2.3326    0.0410 H        1 ZINC000016052857    0.2100
40     H40    -2.2008   -0.6805    0.0106 H        1 ZINC000016052857    0.4300
41     H41    -5.1097   -4.4176    2.1602 H        1 ZINC000016052857    0.1500
42     H42    -5.3954   -5.6053    0.0259 H        1 ZINC000016052857    0.1500
43     H43    -5.1324   -4.4075   -2.1056 H        1 ZINC000016052857    0.1500
@<TRIPOS>BOND
1     1     2     2
2     2     3     am
3     2     12    1
4     3     4     1
5     3     28    1
6     4     11    1
7     4     5     1
8     4     29    1
9     5     6     1
10    5     30    1
11    5     31    1
12    6     7     1
13    6     32    1
14    6     33    1
15    7     8     1
16    7     9     1
17    7     10    1
18    10    11    1
19    10    34    1
20    10    35    1
21    11    36    1
22    11    37    1
23    12    16    1
24    12    13    2
25    13    14    1
26    14    15    1
27    14    38    1
28    15    16    2
29    15    39    1
30    16    17    1
31    17    18    am
32    17    40    1
33    18    19    2
34    18    20    1
35    20    26    ar
36    20    21    ar
37    21    22    1
38    21    23    ar
39    23    24    ar
40    23    41    1
41    24    25    ar
42    24    42    1
43    25    26    ar
44    25    43    1
45    26    27    1
@<TRIPOS>SUBSTRUCTURE
1   ZINC000016052857 1     RESIDUE    1   A     ZIN   1


@<TRIPOS>MOLECULE
C1C2=C(C3=CC=CC=C3NC1=O)NC4=C2C=C(C=C4)Br
  31   34    0    0    0
SMALL
USER_CHARGES
NO_NAME
@<TRIPOS>ATOM
    1 O1        0.0021    -0.0041     0.0020 O.2    1 <0>      -0.5200
    2 C2       -0.0144     1.2087     0.0087 C.2    1 <0>       0.5300
    3 C3       -1.3427     1.9236     0.0315 C.3    1 <0>      -0.0600
    4 C4       -1.4351     2.7563    -1.2233 C.2    1 <0>      -0.1500
    5 C5       -0.5453     3.7168    -1.5810 C.2    1 <0>       0.1300
    6 N6       -0.9129     4.2511    -2.8005 N.pl3  1 <0>      -0.5800
    7 C7       -2.0659     3.6591    -3.2329 C.ar   1 <0>       0.1200
    8 C8       -2.8358     3.8507    -4.3773 C.ar   1 <0>      -0.1200
    9 C9       -3.9713     3.0698    -4.5114 C.ar   1 <0>      -0.0700
   10 C10      -4.3421     2.1331    -3.5597 C.ar   1 <0>      -0.1200
   11 Br11     -5.9120     1.1157    -3.8359 Br     1 <0>      -0.0500
   12 C12      -3.5967     1.9203    -2.4133 C.ar   1 <0>      -0.0300
   13 C13      -2.4443     2.6989    -2.2578 C.ar   1 <0>      -0.0900
   14 C14       0.6163     4.1389    -0.7691 C.ar   1 <0>      -0.0600
   15 C15       0.9702     5.4928    -0.7853 C.ar   1 <0>      -0.0800
   16 C16       2.0215     5.9466    -0.0192 C.ar   1 <0>      -0.1300
   17 C17       2.7290     5.0604     0.7745 C.ar   1 <0>      -0.0800
   18 C18       2.3992     3.7222     0.7876 C.ar   1 <0>      -0.1400
   19 C19       1.3505     3.2382     0.0029 C.ar   1 <0>       0.1800
   20 N20       1.1397     1.8709     0.0012 N.am   1 <0>      -0.6600
   21 H21      -2.1539     1.1959     0.0528 H      1 <0>       0.1200
   22 H22      -1.4004     2.5686     0.9082 H      1 <0>       0.1100
   23 H23      -0.4263     4.9413    -3.2776 H      1 <0>       0.4200
   24 H24      -2.5595     4.5769    -5.1274 H      1 <0>       0.1400
   25 H25      -4.5897     3.1952    -5.3879 H      1 <0>       0.1300
   26 H26      -3.8901     1.1892    -1.6746 H      1 <0>       0.1400
   27 H27       0.4165     6.1854    -1.4019 H      1 <0>       0.1300
   28 H28       2.2933     6.9916    -0.0382 H      1 <0>       0.1300
   29 H29       3.5435     5.4192     1.3863 H      1 <0>       0.1300
   30 H30       2.9579     3.0406     1.4118 H      1 <0>       0.1400
   31 H31       1.9394     1.3221    -0.0122 H      1 <0>       0.4100
@<TRIPOS>BOND
   1    1    2 2
   2    2   20 am
   3    2    3 1
   4    3    4 1
   5    3   21 1
   6    3   22 1
   7    4   13 1
   8    4    5 2
   9    5    6 1
  10    5   14 1
  11    6    7 1
  12    6   23 1
  13    7   13 ar
  14    7    8 ar
  15    8    9 ar
  16    8   24 1
  17    9   10 ar
  18    9   25 1
  19   10   11 1
  20   10   12 ar
  21   12   13 ar
  22   12   26 1
  23   14   19 ar
  24   14   15 ar
  25   15   16 ar
  26   15   27 1
  27   16   17 ar
  28   16   28 1
  29   17   18 ar
  30   17   29 1
  31   18   19 ar
  32   18   30 1
  33   19   20 1
  34   20   31 1


@<TRIPOS>MOLECULE
C1CNCCC1NC(=O)C2=C(C=NN2)NC(=O)C3=C(C=CC=C3Cl)Cl
43    45    1     0     0
SMALL
USER_CHARGES
@<TRIPOS>ATOM
1      O1      0.0021   -0.0041    0.0020 O.2      1 ZINC000016052857   -0.5300
2      C2     -0.0144    1.2117    0.0087 C.2      1 ZINC000016052857    0.6200
3      N3      1.1435    1.9014    0.0014 N.am     1 ZINC000016052857   -0.7200
4      C4      2.4220    1.1863   -0.0147 C.3      1 ZINC000016052857    0.1400
5      C5      2.7986    0.8429   -1.4588 C.3      1 ZINC000016052857   -0.1600
6      C6      4.1714    0.1673   -1.4753 C.3      1 ZINC000016052857    0.0000
7      N7      5.1751    1.0766   -0.9093 N.4      1 ZINC000016052857   -0.5100
8      H8      6.0871    0.6494   -0.9706 H        1 ZINC000016052857    0.4300
9      H9      5.1745    1.9418   -1.4285 H        1 ZINC000016052857    0.4300
10     C10     4.8596    1.3533    0.4973 C.3      1 ZINC000016052857    0.0000
11     C11     3.5133    2.0746    0.5896 C.3      1 ZINC000016052857   -0.1600
12     C12    -1.3017    1.9318    0.0187 C.2      1 ZINC000016052857   -0.0500
13     N13    -1.4682    3.2403    0.0208 N.2      1 ZINC000016052857   -0.2400
14     N14    -2.7196    3.5295    0.0295 N.pl3    1 ZINC000016052857   -0.3600
15     C15    -3.4637    2.3937    0.0337 C.2      1 ZINC000016052857   -0.0200
16     C16    -2.5949    1.3478    0.0217 C.2      1 ZINC000016052857    0.0900
17     N17    -2.9102   -0.0191    0.0201 N.am     1 ZINC000016052857   -0.6200
18     C18    -4.1990   -0.4134    0.0319 C.2      1 ZINC000016052857    0.5700
19     O19    -5.0883    0.4157    0.0438 O.2      1 ZINC000016052857   -0.5000
20     C20    -4.5309   -1.8523    0.0302 C.ar     1 ZINC000016052857   -0.1200
21     C21    -4.6821   -2.5395    1.2376 C.ar     1 ZINC000016052857    0.0000
22     Cl22   -4.4808   -1.7038    2.7458 Cl       1 ZINC000016052857   -0.0400
23     C23    -4.9925   -3.8851    1.2279 C.ar     1 ZINC000016052857   -0.1000
24     C24    -5.1533   -4.5528    0.0271 C.ar     1 ZINC000016052857   -0.0700
25     C25    -5.0053   -3.8794   -1.1721 C.ar     1 ZINC000016052857   -0.1000
26     C26    -4.7011   -2.5324   -1.1788 C.ar     1 ZINC000016052857    0.0000
27     Cl27   -4.5163   -1.6893   -2.6850 Cl       1 ZINC000016052857   -0.0400
28     H28     1.1303    2.8713    0.0067 H        1 ZINC000016052857    0.4100
29     H29     2.3341    0.2694    0.5681 H        1 ZINC000016052857    0.1100
30     H30     2.0545    0.1655   -1.8778 H        1 ZINC000016052857    0.1200
31     H31     2.8353    1.7564   -2.0524 H        1 ZINC000016052857    0.0900
32     H32     4.1335   -0.7461   -0.8817 H        1 ZINC000016052857    0.1300
33     H33     4.4426   -0.0787   -2.5020 H        1 ZINC000016052857    0.1400
34     H34     4.8070    0.4146    1.0488 H        1 ZINC000016052857    0.1400
35     H35     5.6388    1.9830    0.9269 H        1 ZINC000016052857    0.1400
36     H36     3.5648    3.0136    0.0386 H        1 ZINC000016052857    0.1000
37     H37     3.2800    2.2775    1.6349 H        1 ZINC000016052857    0.1200
38     H38    -3.0811    4.4297    0.0332 H        1 ZINC000016052857    0.4600
39     H39    -4.5419    2.3326    0.0410 H        1 ZINC000016052857    0.2100
40     H40    -2.2008   -0.6805    0.0106 H        1 ZINC000016052857    0.4300
41     H41    -5.1097   -4.4176    2.1602 H        1 ZINC000016052857    0.1500
42     H42    -5.3954   -5.6053    0.0259 H        1 ZINC000016052857    0.1500
43     H43    -5.1324   -4.4075   -2.1056 H        1 ZINC000016052857    0.1500
@<TRIPOS>BOND
1     1     2     2
2     2     3     am
3     2     12    1
4     3     4     1
5     3     28    1
6     4     11    1
7     4     5     1
8     4     29    1
9     5     6     1
10    5     30    1
11    5     31    1
12    6     7     1
13    6     32    1
14    6     33    1
15    7     8     1
16    7     9     1
17    7     10    1
18    10    11    1
19    10    34    1
20    10    35    1
21    11    36    1
22    11    37    1
23    12    16    1
24    12    13    2
25    13    14    1
26    14    15    1
27    14    38    1
28    15    16    2
29    15    39    1
30    16    17    1
31    17    18    am
32    17    40    1
33    18    19    2
34    18    20    1
35    20    26    ar
36    20    21    ar
37    21    22    1
38    21    23    ar
39    23    24    ar
40    23    41    1
41    24    25    ar
42    24    42    1
43    25    26    ar
44    25    43    1
45    26    27    1
@<TRIPOS>SUBSTRUCTURE
1   ZINC000016052857 1     RESIDUE    1   A     ZIN   1


@<TRIPOS>MOLECULE
C1=CC(=CC=C1C2=COC3=CC(=CC(=C3C2=O)O)O)O
29    31    1     0     0
SMALL
USER_CHARGES
@<TRIPOS>ATOM
1      O1      0.0021   -0.0041    0.0020 O.2      1 ZINC000018825330   -0.4900
2      C2     -0.0145    1.2150    0.0087 C.2      1 ZINC000018825330    0.4400
3      C3     -1.2756    1.9824    0.0312 C.2      1 ZINC000018825330   -0.2700
4      C4     -2.5761    1.3210   -0.2359 C.ar     1 ZINC000018825330   -0.0100
5      C5     -3.0622    0.3553    0.6439 C.ar     1 ZINC000018825330   -0.0800
6      C6     -4.2719   -0.2579    0.3927 C.ar     1 ZINC000018825330   -0.1400
7      C7     -5.0051    0.0858   -0.7347 C.ar     1 ZINC000018825330    0.1000
8      O8     -6.1967   -0.5203   -0.9794 O.3      1 ZINC000018825330   -0.5000
9      C9     -4.5240    1.0474   -1.6125 C.ar     1 ZINC000018825330   -0.1400
10     C10    -3.3175    1.6681   -1.3641 C.ar     1 ZINC000018825330   -0.1000
11     C11    -1.2104    3.3109    0.3038 C.2      1 ZINC000018825330    0.1200
12     O12    -0.0675    3.9448    0.5677 O.3      1 ZINC000018825330   -0.2200
13     C13     1.1242    3.3900    0.2752 C.ar     1 ZINC000018825330    0.1800
14     C14     2.2736    4.1675    0.2464 C.ar     1 ZINC000018825330   -0.2900
15     C15     3.4983    3.5885   -0.0451 C.ar     1 ZINC000018825330    0.3200
16     O16     4.6152    4.3595   -0.0723 O.3      1 ZINC000018825330   -0.6900
17     C17     3.5967    2.2268   -0.3096 C.ar     1 ZINC000018825330   -0.2900
18     C18     2.4638    1.4339   -0.2897 C.ar     1 ZINC000018825330    0.2200
19     O19     2.5547    0.1042   -0.5443 O.3      1 ZINC000018825330   -0.4900
20     C20     1.2225    2.0146    0.0012 C.ar     1 ZINC000018825330   -0.3700
21     H21    -2.4920    0.0872    1.5211 H        1 ZINC000018825330    0.1300
22     H22    -4.6489   -1.0065    1.0738 H        1 ZINC000018825330    0.1300
23     H23    -6.9562   -0.0667   -0.5889 H        1 ZINC000018825330    0.3900
24     H24    -5.0969    1.3130   -2.4886 H        1 ZINC000018825330    0.1300
25     H25    -2.9437    2.4163   -2.0474 H        1 ZINC000018825330    0.1300
26     H26    -2.1277    3.8811    0.3074 H        1 ZINC000018825330    0.1800
27     H27     2.2132    5.2262    0.4513 H        1 ZINC000018825330    0.1200
28     H28     4.5585    1.7882   -0.5310 H        1 ZINC000018825330    0.1200
29     H29     2.7056   -0.4375    0.2424 H        1 ZINC000018825330    0.3900
@<TRIPOS>BOND
1     1     2     2
2     2     20    1
3     2     3     1
4     3     4     1
5     3     11    2
6     4     10    ar
7     4     5     ar
8     5     6     ar
9     5     21    1
10    6     7     ar
11    6     22    1
12    7     8     1
13    7     9     ar
14    8     23    1
15    9     10    ar
16    9     24    1
17    10    25    1
18    11    12    1
19    11    26    1
20    12    13    1
21    13    20    ar
22    13    14    ar
23    14    15    ar
24    14    27    1
25    15    16    1
26    15    17    ar
27    17    18    ar
28    17    28    1
29    18    19    1
30    18    20    ar
31    19    29    1
@<TRIPOS>SUBSTRUCTURE
1   ZINC000018825330 1     RESIDUE    1   A     ZIN   1


@<TRIPOS>MOLECULE
COC1=C(C=C(C=N1)C2=CC3=C(C=CN=C3C=C2)C4=CN=NC=C4)NS(=O)(=O)C5=C(C=C(C=C5)F)F
52    56    1     0     0
SMALL
USER_CHARGES
@<TRIPOS>ATOM
1      C1     -0.0173    1.4248    0.0099 C.3      1 ZINC000043208634    0.0600
2      O2      0.0021   -0.0041    0.0020 O.3      1 ZINC000043208634   -0.3200
3      C3      0.6051   -0.6064   -1.0545 C.ar     1 ZINC000043208634    0.2000
4      N4      1.1423    0.1337   -2.0083 N.ar     1 ZINC000043208634   -0.5000
5      C5      1.7389   -0.4043   -3.0542 C.ar     1 ZINC000043208634    0.0400
6      C6      1.8248   -1.7865   -3.1928 C.ar     1 ZINC000043208634   -0.1100
7      C7      2.4976   -2.3832   -4.3722 C.ar     1 ZINC000043208634    0.0200
8      C8      2.5713   -3.7790   -4.5012 C.ar     1 ZINC000043208634   -0.0900
9      C9      3.1820   -4.3496   -5.5719 C.ar     1 ZINC000043208634   -0.0900
10     C10     3.7519   -3.5407   -6.5724 C.ar     1 ZINC000043208634    0.1200
11     N11     4.3558   -4.0874   -7.6323 N.ar     1 ZINC000043208634   -0.4600
12     C12     4.8934   -3.3538   -8.5767 C.ar     1 ZINC000043208634    0.1200
13     C13     4.8675   -1.9643   -8.5325 C.ar     1 ZINC000043208634   -0.1500
14     C14     4.2579   -1.3236   -7.4626 C.ar     1 ZINC000043208634    0.0000
15     C15     4.2109    0.1549   -7.3823 C.ar     1 ZINC000043208634   -0.0400
16     C16     5.3656    0.9275   -7.5628 C.ar     1 ZINC000043208634   -0.1000
17     C17     5.2428    2.3030   -7.4736 C.ar     1 ZINC000043208634    0.0400
18     N18     4.0654    2.8453   -7.2257 N.ar     1 ZINC000043208634   -0.2400
19     N19     3.0043    2.1439   -7.0594 N.ar     1 ZINC000043208634   -0.2300
20     C20     3.0113    0.8277   -7.1294 C.ar     1 ZINC000043208634    0.0600
21     C21     3.6808   -2.1310   -6.4489 C.ar     1 ZINC000043208634   -0.0700
22     C22     3.0439   -1.5604   -5.3419 C.ar     1 ZINC000043208634   -0.1200
23     C23     1.2683   -2.6056   -2.2041 C.ar     1 ZINC000043208634   -0.1200
24     C24     0.6551   -2.0007   -1.1172 C.ar     1 ZINC000043208634    0.2400
25     N25     0.0841   -2.7772   -0.1021 N.pl3    1 ZINC000043208634   -1.0900
26     S26    -0.6453   -2.0433    1.1908 S.o2     1 ZINC000043208634    2.6300
27     O27     0.3847   -1.3761    1.9071 O.2      1 ZINC000043208634   -1.0100
28     O28    -1.7929   -1.3788    0.6802 O.2      1 ZINC000043208634   -1.0000
29     C29    -1.2397   -3.3209    2.2487 C.ar     1 ZINC000043208634   -0.6800
30     C30    -0.7120   -3.4686    3.5173 C.ar     1 ZINC000043208634    0.0200
31     C31    -1.1777   -4.4701    4.3484 C.ar     1 ZINC000043208634   -0.1900
32     C32    -2.1735   -5.3266    3.9106 C.ar     1 ZINC000043208634    0.1600
33     F33    -2.6288   -6.3050    4.7233 F        1 ZINC000043208634   -0.1300
34     C34    -2.7029   -5.1796    2.6399 C.ar     1 ZINC000043208634   -0.2200
35     C35    -2.2396   -4.1731    1.8106 C.ar     1 ZINC000043208634    0.2300
36     F36    -2.7553   -4.0285    0.5703 F        1 ZINC000043208634   -0.1100
37     H37     1.0053    1.8021    0.0021 H        1 ZINC000043208634    0.0500
38     H38    -0.5445    1.7859   -0.8732 H        1 ZINC000043208634    0.0500
39     H39    -0.5275    1.7763    0.9067 H        1 ZINC000043208634    0.0800
40     H40     2.1657    0.2354   -3.8124 H        1 ZINC000043208634    0.1400
41     H41     2.1368   -4.4079   -3.7383 H        1 ZINC000043208634    0.1400
42     H42     3.2305   -5.4252   -5.6552 H        1 ZINC000043208634    0.1400
43     H43     5.3704   -3.8429   -9.4131 H        1 ZINC000043208634    0.1600
44     H44     5.3194   -1.3869   -9.3255 H        1 ZINC000043208634    0.1400
45     H45     6.3204    0.4648   -7.7646 H        1 ZINC000043208634    0.1500
46     H46     6.1103    2.9326   -7.6065 H        1 ZINC000043208634    0.1800
47     H47     2.0971    0.2715   -6.9837 H        1 ZINC000043208634    0.1800
48     H48     2.9824   -0.4867   -5.2427 H        1 ZINC000043208634    0.1300
49     H49     1.3188   -3.6815   -2.2833 H        1 ZINC000043208634    0.1300
50     H50     0.0651   -2.8012    3.8595 H        1 ZINC000043208634    0.1600
51     H51    -0.7643   -4.5848    5.3396 H        1 ZINC000043208634    0.1500
52     H52    -3.4798   -5.8472    2.2976 H        1 ZINC000043208634    0.1500
@<TRIPOS>BOND
1     1     2     1
2     1     37    1
3     1     38    1
4     1     39    1
5     2     3     1
6     3     24    ar
7     3     4     ar
8     4     5     ar
9     5     6     ar
10    5     40    1
11    6     7     1
12    6     23    ar
13    7     22    ar
14    7     8     ar
15    8     9     ar
16    8     41    1
17    9     10    ar
18    9     42    1
19    10    21    ar
20    10    11    ar
21    11    12    ar
22    12    13    ar
23    12    43    1
24    13    14    ar
25    13    44    1
26    14    15    1
27    14    21    ar
28    15    20    ar
29    15    16    ar
30    16    17    ar
31    16    45    1
32    17    18    ar
33    17    46    1
34    18    19    ar
35    19    20    ar
36    20    47    1
37    21    22    ar
38    22    48    1
39    23    24    ar
40    23    49    1
41    24    25    1
42    25    26    1
43    26    27    2
44    26    28    2
45    26    29    1
46    29    35    ar
47    29    30    ar
48    30    31    ar
49    30    50    1
50    31    32    ar
51    31    51    1
52    32    33    1
53    32    34    ar
54    34    35    ar
55    34    52    1
56    35    36    1
@<TRIPOS>SUBSTRUCTURE
1   ZINC000043208634 1     RESIDUE    1   A     ZIN   1


@<TRIPOS>MOLECULE
C1CC(C1)(C2=CC=C(C=C2)C3=C(C=C4C(=N3)C=CN5C4=NNC5=O)C6=CC=CC=C6)N
53    58    1     0     0
SMALL
USER_CHARGES
@<TRIPOS>ATOM
1      N1     -0.0116    1.0048    0.0076 N.4      1 ZINC000036382821   -0.6200
2      H2      0.0021   -0.0041    0.0020 H        1 ZINC000036382821    0.4400
3      H3      0.9350    1.3541    0.0004 H        1 ZINC000036382821    0.4400
4      H4     -0.4996    1.3391   -0.8099 H        1 ZINC000036382821    0.4400
5      C5     -0.6992    1.4786    1.2162 C.3      1 ZINC000036382821    0.0600
6      C6     -1.0020    2.9543    1.1767 C.ar     1 ZINC000036382821   -0.1000
7      C7     -1.2428    3.6399    2.3540 C.ar     1 ZINC000036382821   -0.1000
8      C8     -1.5206    4.9911    2.3243 C.ar     1 ZINC000036382821   -0.0600
9      C9     -1.5585    5.6657    1.1042 C.ar     1 ZINC000036382821   -0.0300
10     C10    -1.8557    7.1164    1.0654 C.ar     1 ZINC000036382821    0.2000
11     N11    -2.7081    7.6293    1.9395 N.ar     1 ZINC000036382821   -0.4500
12     C12    -3.0038    8.9229    1.9420 C.ar     1 ZINC000036382821    0.2100
13     C13    -2.4097    9.7950    1.0017 C.ar     1 ZINC000036382821   -0.0800
14     C14    -1.5088    9.2908    0.0678 C.ar     1 ZINC000036382821    0.0000
15     C15    -1.2227    7.9262    0.1042 C.ar     1 ZINC000036382821   -0.0900
16     C16    -0.2710    7.3339   -0.8651 C.ar     1 ZINC000036382821   -0.0500
17     C17     0.7640    6.5137   -0.4177 C.ar     1 ZINC000036382821   -0.1000
18     C18     1.6472    5.9651   -1.3250 C.ar     1 ZINC000036382821   -0.1200
19     C19     1.5075    6.2278   -2.6760 C.ar     1 ZINC000036382821   -0.1100
20     C20     0.4826    7.0408   -3.1258 C.ar     1 ZINC000036382821   -0.1100
21     C21    -0.4104    7.5901   -2.2286 C.ar     1 ZINC000036382821   -0.1000
22     C22    -2.7669   11.2224    1.0404 C.2      1 ZINC000036382821    0.3100
23     N23    -2.3883   12.2418    0.3160 N.2      1 ZINC000036382821   -0.2500
24     N24    -3.0498   13.3810    0.7937 N.am     1 ZINC000036382821   -0.5300
25     C25    -3.8299   12.9962    1.8232 C.2      1 ZINC000036382821    0.6600
26     O26    -4.5520   13.7204    2.4854 O.2      1 ZINC000036382821   -0.5200
27     N27    -3.6689   11.6656    1.9912 N.am     1 ZINC000036382821   -0.4900
28     C28    -4.2321   10.7931    2.8964 C.2      1 ZINC000036382821    0.1500
29     C29    -3.9496    9.4869    2.9122 C.2      1 ZINC000036382821   -0.1600
30     C30    -1.3149    4.9691   -0.0792 C.ar     1 ZINC000036382821   -0.0700
31     C31    -1.0326    3.6191   -0.0362 C.ar     1 ZINC000036382821   -0.1300
32     C32    -1.9032    0.6113    1.6199 C.3      1 ZINC000036382821   -0.1300
33     C33    -0.9184   -0.2324    2.4464 C.3      1 ZINC000036382821   -0.1600
34     C34    -0.0315    1.0215    2.5239 C.3      1 ZINC000036382821   -0.1300
35     H35    -1.2135    3.1163    3.2981 H        1 ZINC000036382821    0.1400
36     H36    -1.7087    5.5252    3.2439 H        1 ZINC000036382821    0.1500
37     H37    -1.0423    9.9376   -0.6604 H        1 ZINC000036382821    0.1600
38     H38     0.8745    6.3084    0.6369 H        1 ZINC000036382821    0.1200
39     H39     2.4493    5.3296   -0.9796 H        1 ZINC000036382821    0.1200
40     H40     2.2016    5.7968   -3.3823 H        1 ZINC000036382821    0.1300
41     H41     0.3785    7.2424   -4.1817 H        1 ZINC000036382821    0.1300
42     H42    -1.2102    8.2247   -2.5809 H        1 ZINC000036382821    0.1300
43     H43    -2.9623   14.2825    0.4465 H        1 ZINC000036382821    0.4700
44     H44    -4.9318   11.1804    3.6223 H        1 ZINC000036382821    0.1800
45     H45    -4.4181    8.8441    3.6428 H        1 ZINC000036382821    0.1700
46     H46    -1.3432    5.4860   -1.0270 H        1 ZINC000036382821    0.1400
47     H47    -0.8435    3.0786   -0.9519 H        1 ZINC000036382821    0.1200
48     H48    -2.6393    1.1406    2.2249 H        1 ZINC000036382821    0.1300
49     H49    -2.3499    0.0692    0.7864 H        1 ZINC000036382821    0.0900
50     H50    -1.3157   -0.5466    3.4115 H        1 ZINC000036382821    0.1000
51     H51    -0.4681   -1.0517    1.8859 H        1 ZINC000036382821    0.0900
52     H52     1.0328    0.8106    2.4202 H        1 ZINC000036382821    0.1000
53     H53    -0.2559    1.6630    3.3761 H        1 ZINC000036382821    0.1300
@<TRIPOS>BOND
1     1     2     1
2     1     3     1
3     1     4     1
4     1     5     1
5     5     34    1
6     5     6     1
7     5     32    1
8     6     31    ar
9     6     7     ar
10    7     8     ar
11    7     35    1
12    8     9     ar
13    8     36    1
14    9     10    1
15    9     30    ar
16    10    15    ar
17    10    11    ar
18    11    12    ar
19    12    29    1
20    12    13    ar
21    13    14    ar
22    13    22    1
23    14    15    ar
24    14    37    1
25    15    16    1
26    16    21    ar
27    16    17    ar
28    17    18    ar
29    17    38    1
30    18    19    ar
31    18    39    1
32    19    20    ar
33    19    40    1
34    20    21    ar
35    20    41    1
36    21    42    1
37    22    27    1
38    22    23    2
39    23    24    1
40    24    25    am
41    24    43    1
42    25    26    2
43    25    27    am
44    27    28    1
45    28    29    2
46    28    44    1
47    29    45    1
48    30    31    ar
49    30    46    1
50    31    47    1
51    32    33    1
52    32    48    1
53    32    49    1
54    33    34    1
55    33    50    1
56    33    51    1
57    34    52    1
58    34    53    1
@<TRIPOS>SUBSTRUCTURE
1   ZINC000036382821 1     RESIDUE    1   A     ZIN   1


@<TRIPOS>MOLECULE
CC(C)OC1=C(C=CC(=C1)OC)C2=NC(C(N2C(=O)N3CCNC(=O)C3)C4=CC=C(C=C4)Cl)C5=CC=C(C=C5)Cl
70    74    1     0     0
SMALL
USER_CHARGES
@<TRIPOS>ATOM
1      C1      0.3151    0.9360    0.8078 C.3      1 ZINC000015965747    0.0300
2      O2      1.5717    0.8120    0.1388 O.3      1 ZINC000015965747   -0.3100
3      C3      1.6240   -0.0324   -0.9231 C.ar     1 ZINC000015965747    0.1900
4      C4      0.4830   -0.7234   -1.3154 C.ar     1 ZINC000015965747   -0.2600
5      C5      0.5281   -1.5816   -2.3915 C.ar     1 ZINC000015965747    0.0100
6      C6      1.7225   -1.7594   -3.0924 C.ar     1 ZINC000015965747   -0.1300
7      C7      1.7744   -2.6784   -4.2470 C.2      1 ZINC000015965747    0.4500
8      N8      1.5003   -3.9385   -4.1561 N.2      1 ZINC000015965747   -0.5100
9      C9      1.6402   -4.5838   -5.4684 C.3      1 ZINC000015965747    0.1000
10     H10     0.6882   -5.0067   -5.7890 H        1 ZINC000015965747    0.1200
11     C11     2.7013   -5.6529   -5.4201 C.ar     1 ZINC000015965747   -0.0800
12     C12     3.8524   -5.4510   -4.6817 C.ar     1 ZINC000015965747   -0.0800
13     C13     4.8259   -6.4311   -4.6370 C.ar     1 ZINC000015965747   -0.1100
14     C14     4.6482   -7.6144   -5.3315 C.ar     1 ZINC000015965747   -0.0300
15     Cl15    5.8703   -8.8461   -5.2755 Cl       1 ZINC000015965747   -0.0700
16     C16     3.4960   -7.8158   -6.0704 C.ar     1 ZINC000015965747   -0.1100
17     C17     2.5206   -6.8373   -6.1097 C.ar     1 ZINC000015965747   -0.0900
18     C18     2.0661   -3.4390   -6.4085 C.3      1 ZINC000015965747    0.1300
19     H19     3.0475   -3.6395   -6.8383 H        1 ZINC000015965747    0.1200
20     C20     1.0429   -3.2362   -7.4962 C.ar     1 ZINC000015965747   -0.1100
21     C21    -0.1102   -2.5198   -7.2353 C.ar     1 ZINC000015965747   -0.0900
22     C22    -1.0490   -2.3335   -8.2325 C.ar     1 ZINC000015965747   -0.1000
23     C23    -0.8344   -2.8642   -9.4920 C.ar     1 ZINC000015965747   -0.0300
24     Cl24   -2.0127   -2.6301  -10.7452 Cl       1 ZINC000015965747   -0.0600
25     C25     0.3199   -3.5810   -9.7526 C.ar     1 ZINC000015965747   -0.1000
26     C26     1.2605   -3.7619   -8.7562 C.ar     1 ZINC000015965747   -0.0900
27     N27     2.1135   -2.2677   -5.5175 N.am     1 ZINC000015965747   -0.5800
28     C28     2.4406   -1.0117   -5.8806 C.2      1 ZINC000015965747    0.7400
29     O29     2.5316   -0.1397   -5.0386 O.2      1 ZINC000015965747   -0.5300
30     N30     2.6669   -0.7225   -7.1774 N.am     1 ZINC000015965747   -0.6200
31     C31     2.9170    0.6590   -7.6220 C.3      1 ZINC000015965747    0.1100
32     C32     4.3158    0.7163   -8.2389 C.3      1 ZINC000015965747    0.0900
33     N33     4.5187   -0.3912   -9.1627 N.am     1 ZINC000015965747   -0.7200
34     C34     3.8265   -1.5312   -9.1419 C.2      1 ZINC000015965747    0.5100
35     O35     4.1408   -2.4130   -9.9129 O.2      1 ZINC000015965747   -0.5400
36     C36     2.6801   -1.7743   -8.2049 C.3      1 ZINC000015965747    0.0400
37     C37     2.8720   -1.0619   -2.6964 C.ar     1 ZINC000015965747    0.2500
38     O38     4.0368   -1.2293   -3.3726 O.3      1 ZINC000015965747   -0.2900
39     C39     5.1465   -0.4282   -2.9617 C.3      1 ZINC000015965747    0.0800
40     C40     6.4507   -1.1136   -3.3740 C.3      1 ZINC000015965747   -0.1500
41     C41     5.0589    0.9455   -3.6297 C.3      1 ZINC000015965747   -0.1700
42     C42     2.8141   -0.1982   -1.6163 C.ar     1 ZINC000015965747   -0.2600
43     H43    -0.4354    1.3006    0.1065 H        1 ZINC000015965747    0.0600
44     H44     0.0106   -0.0374    1.1923 H        1 ZINC000015965747    0.0600
45     H45     0.4117    1.6394    1.6348 H        1 ZINC000015965747    0.1000
46     H46    -0.4416   -0.5869   -0.7742 H        1 ZINC000015965747    0.1300
47     H47    -0.3600   -2.1172   -2.6929 H        1 ZINC000015965747    0.1300
48     H48     3.9912   -4.5271   -4.1399 H        1 ZINC000015965747    0.1300
49     H49     5.7253   -6.2731   -4.0604 H        1 ZINC000015965747    0.1300
50     H50     3.3568   -8.7392   -6.6130 H        1 ZINC000015965747    0.1400
51     H51     1.6210   -6.9946   -6.6861 H        1 ZINC000015965747    0.1400
52     H52    -0.2778   -2.1060   -6.2519 H        1 ZINC000015965747    0.1300
53     H53    -1.9500   -1.7742   -8.0284 H        1 ZINC000015965747    0.1400
54     H54     0.4878   -3.9958  -10.7356 H        1 ZINC000015965747    0.1400
55     H55     2.1618   -4.3211   -8.9595 H        1 ZINC000015965747    0.1400
56     H56     2.1746    0.9458   -8.3668 H        1 ZINC000015965747    0.0800
57     H57     2.8633    1.3354   -6.7689 H        1 ZINC000015965747    0.1200
58     H58     4.4328    1.6576   -8.7760 H        1 ZINC000015965747    0.0900
59     H59     5.0606    0.6623   -7.4449 H        1 ZINC000015965747    0.0700
60     H60     5.2053   -0.2928   -9.8409 H        1 ZINC000015965747    0.4000
61     H61     2.7956   -2.7497   -7.7323 H        1 ZINC000015965747    0.1600
62     H62     1.7424   -1.7442   -8.7598 H        1 ZINC000015965747    0.1100
63     H63     5.1261   -0.3075   -1.8786 H        1 ZINC000015965747    0.0700
64     H64     6.4711   -1.2343   -4.4571 H        1 ZINC000015965747    0.0600
65     H65     7.2972   -0.5026   -3.0605 H        1 ZINC000015965747    0.0800
66     H66     6.5131   -2.0923   -2.8981 H        1 ZINC000015965747    0.0600
67     H67     5.9053    1.5565   -3.3162 H        1 ZINC000015965747    0.0600
68     H68     5.0792    0.8247   -4.7128 H        1 ZINC000015965747    0.0600
69     H69     4.1297    1.4337   -3.3359 H        1 ZINC000015965747    0.0700
70     H70     3.6977    0.3412   -1.3085 H        1 ZINC000015965747    0.1400
@<TRIPOS>BOND
1     1     2     1
2     1     43    1
3     1     44    1
4     1     45    1
5     2     3     1
6     3     42    ar
7     3     4     ar
8     4     5     ar
9     4     46    1
10    5     6     ar
11    5     47    1
12    6     7     1
13    6     37    ar
14    7     27    1
15    7     8     2
16    8     9     1
17    9     10    1
18    9     11    1
19    9     18    1
20    11    17    ar
21    11    12    ar
22    12    13    ar
23    12    48    1
24    13    14    ar
25    13    49    1
26    14    15    1
27    14    16    ar
28    16    17    ar
29    16    50    1
30    17    51    1
31    18    19    1
32    18    20    1
33    18    27    1
34    20    26    ar
35    20    21    ar
36    21    22    ar
37    21    52    1
38    22    23    ar
39    22    53    1
40    23    24    1
41    23    25    ar
42    25    26    ar
43    25    54    1
44    26    55    1
45    27    28    am
46    28    29    2
47    28    30    am
48    30    36    1
49    30    31    1
50    31    32    1
51    31    56    1
52    31    57    1
53    32    33    1
54    32    58    1
55    32    59    1
56    33    34    am
57    33    60    1
58    34    35    2
59    34    36    1
60    36    61    1
61    36    62    1
62    37    38    1
63    37    42    ar
64    38    39    1
65    39    40    1
66    39    41    1
67    39    63    1
68    40    64    1
69    40    65    1
70    40    66    1
71    41    67    1
72    41    68    1
73    41    69    1
74    42    70    1
@<TRIPOS>SUBSTRUCTURE
1   ZINC000015965747 1     RESIDUE    1   A     ZIN   1


@<TRIPOS>MOLECULE
CC1=C(N(N=C1C(=O)NN2CCCCC2)C3=C(C=C(C=C3)Cl)Cl)C4=CC=C(C=C4)Cl
  51   54    0    0    0
SMALL
USER_CHARGES
NO_NAME
@<TRIPOS>ATOM
    1 C1        0.6872     1.4464    -0.4266 C.3    1 <0>      -0.0900
    2 C2        0.3305     0.0027    -0.1826 C.2    1 <0>      -0.1000
    3 C3        0.2323    -0.9943    -1.1127 C.2    1 <0>       0.0500
    4 C4        0.4574    -0.8671    -2.5696 C.ar   1 <0>      -0.0200
    5 C5       -0.2330     0.0982    -3.3031 C.ar   1 <0>      -0.0800
    6 C6       -0.0191     0.2121    -4.6612 C.ar   1 <0>      -0.1100
    7 C7        0.8786    -0.6292    -5.2964 C.ar   1 <0>      -0.0200
    8 Cl8       1.1431    -0.4797    -7.0056 Cl     1 <0>      -0.0600
    9 C9        1.5665    -1.5890    -4.5734 C.ar   1 <0>      -0.1000
   10 C10       1.3650    -1.7083    -3.2139 C.ar   1 <0>      -0.0800
   11 N11      -0.1137    -2.1308    -0.4379 N.pl3  1 <0>      -0.2300
   12 C12      -0.3157    -3.3855    -1.0268 C.ar   1 <0>       0.1400
   13 C13      -1.1221    -3.5046    -2.1506 C.ar   1 <0>      -0.0800
   14 C14      -1.3198    -4.7430    -2.7295 C.ar   1 <0>      -0.0900
   15 C15      -0.7156    -5.8651    -2.1904 C.ar   1 <0>      -0.0100
   16 Cl16     -0.9671    -7.4198    -2.9207 Cl     1 <0>      -0.0400
   17 C17       0.0893    -5.7502    -1.0703 C.ar   1 <0>      -0.0900
   18 C18       0.2953    -4.5130    -0.4904 C.ar   1 <0>      -0.0100
   19 Cl19      1.3050    -4.3690     0.9145 Cl     1 <0>      -0.0200
   20 N20      -0.2263    -1.8783     0.8165 N.2    1 <0>      -0.2300
   21 C21       0.0330    -0.6071     1.0556 C.2    1 <0>       0.0000
   22 C22       0.0071     0.0579     2.3742 C.2    1 <0>       0.6200
   23 O23       0.2673     1.2422     2.4629 O.2    1 <0>      -0.5000
   24 N24      -0.3049    -0.6482     3.4790 N.am   1 <0>      -0.5700
   25 N25      -0.4249    -0.0146     4.6832 N.3    1 <0>      -0.2900
   26 C26       0.6669    -0.3945     5.5888 C.3    1 <0>       0.0400
   27 C27       0.5834     0.4401     6.8689 C.3    1 <0>      -0.1100
   28 C28      -0.7706     0.1990     7.5421 C.3    1 <0>      -0.1300
   29 C29      -1.8904     0.5566     6.5610 C.3    1 <0>      -0.1100
   30 C30      -1.7353    -0.2814     5.2899 C.3    1 <0>       0.0400
   31 H31       1.7679     1.5705    -0.3564 H      1 <0>       0.0700
   32 H32       0.3516     1.7406    -1.4210 H      1 <0>       0.0700
   33 H33       0.2003     2.0724     0.3212 H      1 <0>       0.0900
   34 H34      -0.9337     0.7547    -2.8088 H      1 <0>       0.1400
   35 H35      -0.5532     0.9588    -5.2301 H      1 <0>       0.1400
   36 H36       2.2653    -2.2428    -5.0741 H      1 <0>       0.1400
   37 H37       1.9021    -2.4573    -2.6510 H      1 <0>       0.1300
   38 H38      -1.5947    -2.6296    -2.5718 H      1 <0>       0.1500
   39 H39      -1.9470    -4.8358    -3.6038 H      1 <0>       0.1600
   40 H40       0.5597    -6.6276    -0.6516 H      1 <0>       0.1600
   41 H41      -0.4442    -1.6062     3.4190 H      1 <0>       0.3900
   42 H42       0.5802    -1.4520     5.8385 H      1 <0>       0.0400
   43 H43       1.6240    -0.2143     5.0995 H      1 <0>       0.0800
   44 H44       1.3845     0.1469     7.5473 H      1 <0>       0.0700
   45 H45       0.6838     1.4969     6.6214 H      1 <0>       0.0800
   46 H46      -0.8552    -0.8503     7.8248 H      1 <0>       0.0600
   47 H47      -0.8517     0.8244     8.4312 H      1 <0>       0.0700
   48 H48      -2.8568     0.3467     7.0196 H      1 <0>       0.0700
   49 H49      -1.8290     1.6152     6.3088 H      1 <0>       0.0800
   50 H50      -2.5228    -0.0189     4.5835 H      1 <0>       0.0800
   51 H51      -1.8106    -1.3394     5.5410 H      1 <0>       0.0400
@<TRIPOS>BOND
   1    1    2 1
   2    1   31 1
   3    1   32 1
   4    1   33 1
   5    2   21 1
   6    2    3 2
   7    3    4 1
   8    3   11 1
   9    4   10 ar
  10    4    5 ar
  11    5    6 ar
  12    5   34 1
  13    6    7 ar
  14    6   35 1
  15    7    8 1
  16    7    9 ar
  17    9   10 ar
  18    9   36 1
  19   10   37 1
  20   11   12 1
  21   11   20 1
  22   12   18 ar
  23   12   13 ar
  24   13   14 ar
  25   13   38 1
  26   14   15 ar
  27   14   39 1
  28   15   16 1
  29   15   17 ar
  30   17   18 ar
  31   17   40 1
  32   18   19 1
  33   20   21 2
  34   21   22 1
  35   22   23 2
  36   22   24 am
  37   24   25 1
  38   24   41 1
  39   25   30 1
  40   25   26 1
  41   26   27 1
  42   26   42 1
  43   26   43 1
  44   27   28 1
  45   27   44 1
  46   27   45 1
  47   28   29 1
  48   28   46 1
  49   28   47 1
  50   29   30 1
  51   29   48 1
  52   29   49 1
  53   30   50 1
  54   30   51 1


@<TRIPOS>MOLECULE
CN(C)CCCN1C=C(C2=CC=CC=C21)C3=C(C(=O)NC3=O)C4=CNC5=CC=CC=C54
56    60    1     0     0
SMALL
USER_CHARGES
@<TRIPOS>ATOM
1      C1     -0.0178    1.4648    0.0101 C.3      1 ZINC000000585151   -0.0500
2      N2      0.0021   -0.0041    0.0020 N.4      1 ZINC000000585151   -0.3900
3      H3      0.4743   -0.3295   -0.8281 H        1 ZINC000000585151    0.4300
4      C4      0.7126   -0.4907    1.1921 C.3      1 ZINC000000585151   -0.0500
5      C5     -1.3761   -0.5125    0.0124 C.3      1 ZINC000000585151   -0.0100
6      C6     -1.3584   -2.0365   -0.1216 C.3      1 ZINC000000585151   -0.1700
7      C7     -2.7938   -2.5661   -0.1108 C.3      1 ZINC000000585151    0.1200
8      N8     -2.7769   -4.0254   -0.2392 N.pl3    1 ZINC000000585151   -0.4800
9      C9     -2.9035   -4.7044   -1.4120 C.2      1 ZINC000000585151    0.0900
10     C10    -2.8450   -6.0461   -1.1745 C.2      1 ZINC000000585151   -0.1200
11     C11    -2.9420   -7.1226   -2.1745 C.2      1 ZINC000000585151   -0.0400
12     C12    -1.9598   -7.5172   -3.0754 C.2      1 ZINC000000585151   -0.0200
13     C13    -0.6116   -6.9436   -3.2227 C.2      1 ZINC000000585151   -0.1400
14     C14     0.4527   -7.1378   -2.3923 C.2      1 ZINC000000585151    0.1000
15     N15     1.5281   -6.4438   -2.8555 N.pl3    1 ZINC000000585151   -0.5900
16     C16     1.1998   -5.7682   -4.0125 C.ar     1 ZINC000000585151    0.0900
17     C17     1.9174   -4.9343   -4.8633 C.ar     1 ZINC000000585151   -0.1300
18     C18     1.3048   -4.3910   -5.9718 C.ar     1 ZINC000000585151   -0.1000
19     C19    -0.0258   -4.6668   -6.2505 C.ar     1 ZINC000000585151   -0.1400
20     C20    -0.7542   -5.4901   -5.4197 C.ar     1 ZINC000000585151   -0.0700
21     C21    -0.1459   -6.0521   -4.2996 C.ar     1 ZINC000000585151   -0.0800
22     C22    -2.5421   -8.6290   -3.8552 C.2      1 ZINC000000585151    0.5500
23     O23    -1.9835   -9.2396   -4.7446 O.2      1 ZINC000000585151   -0.4400
24     N24    -3.7924   -8.8522   -3.4165 N.am     1 ZINC000000585151   -0.6900
25     C25    -4.1007   -8.0062   -2.4191 C.2      1 ZINC000000585151    0.5600
26     O26    -5.1590   -7.9682   -1.8237 O.2      1 ZINC000000585151   -0.4500
27     C27    -2.6658   -6.2072    0.2793 C.ar     1 ZINC000000585151   -0.0800
28     C28    -2.5396   -7.3097    1.1211 C.ar     1 ZINC000000585151   -0.0700
29     C29    -2.3802   -7.1185    2.4764 C.ar     1 ZINC000000585151   -0.1300
30     C30    -2.3455   -5.8357    3.0031 C.ar     1 ZINC000000585151   -0.0900
31     C31    -2.4691   -4.7357    2.1820 C.ar     1 ZINC000000585151   -0.1300
32     C32    -2.6245   -4.9073    0.8106 C.ar     1 ZINC000000585151    0.0900
33     H33     1.0047    1.8421    0.0024 H        1 ZINC000000585151    0.1300
34     H34    -0.5450    1.8259   -0.8730 H        1 ZINC000000585151    0.1200
35     H35    -0.5280    1.8163    0.9069 H        1 ZINC000000585151    0.1200
36     H36     0.7274   -1.5806    1.1861 H        1 ZINC000000585151    0.1200
37     H37     1.7352   -0.1134    1.1844 H        1 ZINC000000585151    0.1300
38     H38     0.2024   -0.1392    2.0889 H        1 ZINC000000585151    0.1200
39     H39    -1.8584   -0.2358    0.9500 H        1 ZINC000000585151    0.1300
40     H40    -1.9290   -0.0808   -0.8218 H        1 ZINC000000585151    0.1400
41     H41    -0.8762   -2.3132   -1.0592 H        1 ZINC000000585151    0.1000
42     H42    -0.8055   -2.4683    0.7126 H        1 ZINC000000585151    0.1000
43     H43    -3.2761   -2.2894    0.8268 H        1 ZINC000000585151    0.1000
44     H44    -3.3467   -2.1344   -0.9450 H        1 ZINC000000585151    0.1000
45     H45    -3.0310   -4.2498   -2.3833 H        1 ZINC000000585151    0.1800
46     H46     0.4435   -7.7492   -1.5020 H        1 ZINC000000585151    0.1800
47     H47     2.4008   -6.4266   -2.4322 H        1 ZINC000000585151    0.4200
48     H48     2.9537   -4.7124   -4.6552 H        1 ZINC000000585151    0.1200
49     H49     1.8660   -3.7439   -6.6297 H        1 ZINC000000585151    0.1300
50     H50    -0.4933   -4.2338   -7.1225 H        1 ZINC000000585151    0.1300
51     H51    -1.7902   -5.7027   -5.6385 H        1 ZINC000000585151    0.1200
52     H52    -4.3880   -9.5325   -3.7679 H        1 ZINC000000585151    0.4300
53     H53    -2.5670   -8.3096    0.7137 H        1 ZINC000000585151    0.1200
54     H54    -2.2821   -7.9714    3.1316 H        1 ZINC000000585151    0.1300
55     H55    -2.2207   -5.6977    4.0670 H        1 ZINC000000585151    0.1300
56     H56    -2.4407   -3.7414    2.6026 H        1 ZINC000000585151    0.1200
@<TRIPOS>BOND
1     1     2     1
2     1     33    1
3     1     34    1
4     1     35    1
5     2     3     1
6     2     4     1
7     2     5     1
8     4     36    1
9     4     37    1
10    4     38    1
11    5     6     1
12    5     39    1
13    5     40    1
14    6     7     1
15    6     41    1
16    6     42    1
17    7     8     1
18    7     43    1
19    7     44    1
20    8     32    1
21    8     9     1
22    9     10    2
23    9     45    1
24    10    11    1
25    10    27    1
26    11    25    1
27    11    12    2
28    12    13    1
29    12    22    1
30    13    21    1
31    13    14    2
32    14    15    1
33    14    46    1
34    15    16    1
35    15    47    1
36    16    21    ar
37    16    17    ar
38    17    18    ar
39    17    48    1
40    18    19    ar
41    18    49    1
42    19    20    ar
43    19    50    1
44    20    21    ar
45    20    51    1
46    22    23    2
47    22    24    am
48    24    25    am
49    24    52    1
50    25    26    2
51    27    32    ar
52    27    28    ar
53    28    29    ar
54    28    53    1
55    29    30    ar
56    29    54    1
57    30    31    ar
58    30    55    1
59    31    32    ar
60    31    56    1
@<TRIPOS>SUBSTRUCTURE
1   ZINC000000585151 1     RESIDUE    1   A     ZIN   1


@<TRIPOS>MOLECULE
C1COCCN1C2=CC(=O)C3=C(O2)C(=CC=C3)C4=CC=CC=C4
40    43    1     0     0
SMALL
USER_CHARGES
@<TRIPOS>ATOM
1      O1      0.0062    0.0118   -0.2718 O.2      1 ZINC000000006014   -0.4900
2      C2     -0.0122    1.2249   -0.1380 C.2      1 ZINC000000006014    0.4300
3      C3     -1.2251    1.9400   -0.1142 C.2      1 ZINC000000006014   -0.4000
4      C4     -1.2042    3.2940    0.0375 C.2      1 ZINC000000006014    0.4300
5      N5     -2.3949    3.9735    0.0588 N.pl3    1 ZINC000000006014   -0.6100
6      C6     -3.6101    3.3551    0.6120 C.3      1 ZINC000000006014    0.0900
7      C7     -4.2346    4.3303    1.6164 C.3      1 ZINC000000006014    0.0400
8      O8     -4.3988    5.6065    0.9936 O.3      1 ZINC000000006014   -0.3800
9      C9     -3.1739    6.2213    0.5868 C.3      1 ZINC000000006014    0.0500
10     C10    -2.4938    5.3450   -0.4652 C.3      1 ZINC000000006014    0.0800
11     O11    -0.0646    3.9867    0.1670 O.3      1 ZINC000000006014   -0.2400
12     C12     1.1457    3.3910    0.1564 C.ar     1 ZINC000000006014    0.1600
13     C13     2.3178    4.1433    0.2945 C.ar     1 ZINC000000006014   -0.0700
14     C14     2.2436    5.6158    0.4556 C.ar     1 ZINC000000006014   -0.0500
15     C15     1.4733    6.3775   -0.4213 C.ar     1 ZINC000000006014   -0.1000
16     C16     1.4075    7.7473   -0.2664 C.ar     1 ZINC000000006014   -0.1200
17     C17     2.1044    8.3644    0.7568 C.ar     1 ZINC000000006014   -0.1100
18     C18     2.8706    7.6135    1.6301 C.ar     1 ZINC000000006014   -0.1200
19     C19     2.9394    6.2425    1.4879 C.ar     1 ZINC000000006014   -0.1000
20     C20     3.5524    3.5031    0.2805 C.ar     1 ZINC000000006014   -0.0500
21     C21     3.6301    2.1295    0.1311 C.ar     1 ZINC000000006014   -0.1400
22     C22     2.4829    1.3758   -0.0065 C.ar     1 ZINC000000006014   -0.0300
23     C23     1.2370    2.0001    0.0115 C.ar     1 ZINC000000006014   -0.2100
24     H24    -2.1655    1.4189   -0.2158 H        1 ZINC000000006014    0.1500
25     H25    -4.3178    3.1530   -0.1921 H        1 ZINC000000006014    0.0900
26     H26    -3.3513    2.4241    1.1164 H        1 ZINC000000006014    0.1000
27     H27    -5.2063    3.9527    1.9346 H        1 ZINC000000006014    0.1100
28     H28    -3.5803    4.4294    2.4826 H        1 ZINC000000006014    0.0600
29     H29    -3.3825    7.2041    0.1642 H        1 ZINC000000006014    0.1100
30     H30    -2.5158    6.3272    1.4492 H        1 ZINC000000006014    0.0600
31     H31    -1.4969    5.7317   -0.6764 H        1 ZINC000000006014    0.1000
32     H32    -3.0877    5.3409   -1.3792 H        1 ZINC000000006014    0.0900
33     H33     0.9290    5.8967   -1.2207 H        1 ZINC000000006014    0.1200
34     H34     0.8112    8.3385   -0.9455 H        1 ZINC000000006014    0.1300
35     H35     2.0504    9.4367    0.8741 H        1 ZINC000000006014    0.1200
36     H36     3.4126    8.1006    2.4271 H        1 ZINC000000006014    0.1300
37     H37     3.5379    5.6572    2.1703 H        1 ZINC000000006014    0.1300
38     H38     4.4576    4.0826    0.3866 H        1 ZINC000000006014    0.1400
39     H39     4.5951    1.6445    0.1218 H        1 ZINC000000006014    0.1400
40     H40     2.5499    0.3042   -0.1230 H        1 ZINC000000006014    0.1400
@<TRIPOS>BOND
1     1     2     2
2     2     23    1
3     2     3     1
4     3     4     2
5     3     24    1
6     4     5     1
7     4     11    1
8     5     10    1
9     5     6     1
10    6     7     1
11    6     25    1
12    6     26    1
13    7     8     1
14    7     27    1
15    7     28    1
16    8     9     1
17    9     10    1
18    9     29    1
19    9     30    1
20    10    31    1
21    10    32    1
22    11    12    1
23    12    23    ar
24    12    13    ar
25    13    14    1
26    13    20    ar
27    14    19    ar
28    14    15    ar
29    15    16    ar
30    15    33    1
31    16    17    ar
32    16    34    1
33    17    18    ar
34    17    35    1
35    18    19    ar
36    18    36    1
37    19    37    1
38    20    21    ar
39    20    38    1
40    21    22    ar
41    21    39    1
42    22    23    ar
43    22    40    1
@<TRIPOS>SUBSTRUCTURE
1   ZINC000000006014 1     RESIDUE    1   A     ZIN   1


@<TRIPOS>MOLECULE
CCCC(CCC)C(=O)O
25    24    1     0     0
SMALL
USER_CHARGES
@<TRIPOS>ATOM
1      C1     -0.0187    1.5258    0.0104 C.3      1 ZINC000003008621   -0.1500
2      C2      0.0021   -0.0041    0.0020 C.3      1 ZINC000003008621   -0.1200
3      C3     -1.4333   -0.5336    0.0129 C.3      1 ZINC000003008621   -0.0900
4      C4     -1.4126   -2.0635    0.0045 C.3      1 ZINC000003008621   -0.1600
5      C5     -2.8413   -2.5937    0.1410 C.3      1 ZINC000003008621   -0.0900
6      C6     -2.8102   -4.1189    0.2579 C.3      1 ZINC000003008621   -0.1200
7      C7     -4.2389   -4.6491    0.3944 C.3      1 ZINC000003008621   -0.1500
8      C8     -0.8177   -2.5507   -1.2916 C.2      1 ZINC000003008621    0.5000
9      O9      0.1892   -3.2381   -1.2799 O.co2    1 ZINC000003008621   -0.7100
10     O10    -1.3432   -2.2574   -2.3519 O.co2    1 ZINC000003008621   -0.7000
11     H11     1.0039    1.9031    0.0027 H        1 ZINC000003008621    0.0500
12     H12    -0.5459    1.8868   -0.8726 H        1 ZINC000003008621    0.0500
13     H13    -0.5289    1.8773    0.9072 H        1 ZINC000003008621    0.0500
14     H14     0.5123   -0.3556   -0.8948 H        1 ZINC000003008621    0.0700
15     H15     0.5293   -0.3651    0.8851 H        1 ZINC000003008621    0.0500
16     H16    -1.9435   -0.1821    0.9097 H        1 ZINC000003008621    0.0400
17     H17    -1.9605   -0.1726   -0.8702 H        1 ZINC000003008621    0.0600
18     H18    -0.8102   -2.4233    0.8386 H        1 ZINC000003008621    0.0600
19     H19    -3.3022   -2.1702    1.0333 H        1 ZINC000003008621    0.0400
20     H20    -3.4202   -2.3083   -0.7374 H        1 ZINC000003008621    0.0600
21     H21    -2.3493   -4.5424   -0.6344 H        1 ZINC000003008621    0.0700
22     H22    -2.2313   -4.4042    1.1363 H        1 ZINC000003008621    0.0500
23     H23    -4.2168   -5.7356    0.4777 H        1 ZINC000003008621    0.0500
24     H24    -4.6999   -4.2256    1.2868 H        1 ZINC000003008621    0.0500
25     H25    -4.8179   -4.3637   -0.4839 H        1 ZINC000003008621    0.0500
@<TRIPOS>BOND
1     1     2     1
2     1     11    1
3     1     12    1
4     1     13    1
5     2     3     1
6     2     14    1
7     2     15    1
8     3     4     1
9     3     16    1
10    3     17    1
11    4     5     1
12    4     8     1
13    4     18    1
14    5     6     1
15    5     19    1
16    5     20    1
17    6     7     1
18    6     21    1
19    6     22    1
20    7     23    1
21    7     24    1
22    7     25    1
23    8     9     ar
24    8     10    ar
@<TRIPOS>SUBSTRUCTURE
1   ZINC000003008621 1     RESIDUE    1   A     ZIN   1


@<TRIPOS>MOLECULE
COC1=CC=C(C=C1)C2=CC(=O)C3=C(C=C(C=C3O2)O)O
32    34    1     0     0
SMALL
USER_CHARGES
@<TRIPOS>ATOM
1      C1     -0.0173    1.4248    0.0099 C.3      1 ZINC000003871358    0.0300
2      O2      0.0021   -0.0041    0.0020 O.3      1 ZINC000003871358   -0.3200
3      C3      0.6052   -0.6065   -1.0546 C.ar     1 ZINC000003871358    0.1400
4      C4      1.1723    0.1657   -2.0613 C.ar     1 ZINC000003871358   -0.2100
5      C5      1.7856   -0.4413   -3.1348 C.ar     1 ZINC000003871358   -0.0400
6      C6      1.8369   -1.8360   -3.2108 C.ar     1 ZINC000003871358   -0.0900
7      C7      2.4930   -2.4906   -4.3584 C.2      1 ZINC000003871358    0.1900
8      C8      2.5223   -3.8496   -4.4073 C.2      1 ZINC000003871358   -0.3200
9      C9      3.1469   -4.4951   -5.5006 C.2      1 ZINC000003871358    0.4300
10     O10     3.1914   -5.7123   -5.5771 O.2      1 ZINC000003871358   -0.5000
11     C11     3.7408   -3.6407   -6.5429 C.ar     1 ZINC000003871358   -0.3700
12     C12     4.3784   -4.1937   -7.6602 C.ar     1 ZINC000003871358    0.2200
13     O13     4.4608   -5.5408   -7.8032 O.3      1 ZINC000003871358   -0.4900
14     C14     4.9230   -3.3569   -8.6170 C.ar     1 ZINC000003871358   -0.2900
15     C15     4.8370   -1.9772   -8.4687 C.ar     1 ZINC000003871358    0.3200
16     O16     5.3751   -1.1647   -9.4139 O.3      1 ZINC000003871358   -0.7000
17     C17     4.2067   -1.4229   -7.3650 C.ar     1 ZINC000003871358   -0.2900
18     C18     3.6552   -2.2454   -6.3954 C.ar     1 ZINC000003871358    0.1900
19     O19     3.0336   -1.7222   -5.3174 O.3      1 ZINC000003871358   -0.2300
20     C20     1.2652   -2.6088   -2.1961 C.ar     1 ZINC000003871358   -0.0500
21     C21     0.6586   -1.9935   -1.1235 C.ar     1 ZINC000003871358   -0.1500
22     H22     1.0053    1.8021    0.0021 H        1 ZINC000003871358    0.0600
23     H23    -0.5445    1.7859   -0.8732 H        1 ZINC000003871358    0.0600
24     H24    -0.5275    1.7763    0.9067 H        1 ZINC000003871358    0.1000
25     H25     1.1319    1.2433   -2.0019 H        1 ZINC000003871358    0.1300
26     H26     2.2258    0.1595   -3.9169 H        1 ZINC000003871358    0.1400
27     H27     2.0723   -4.4319   -3.6168 H        1 ZINC000003871358    0.1500
28     H28     3.7173   -5.9316   -8.2824 H        1 ZINC000003871358    0.3800
29     H29     5.4166   -3.7761   -9.4813 H        1 ZINC000003871358    0.1100
30     H30     4.1460   -0.3497   -7.2606 H        1 ZINC000003871358    0.1200
31     H31     1.3026   -3.6867   -2.2510 H        1 ZINC000003871358    0.1400
32     H32     0.2166   -2.5898   -0.3390 H        1 ZINC000003871358    0.1400
@<TRIPOS>BOND
1     1     2     1
2     1     22    1
3     1     23    1
4     1     24    1
5     2     3     1
6     3     21    ar
7     3     4     ar
8     4     5     ar
9     4     25    1
10    5     6     ar
11    5     26    1
12    6     7     1
13    6     20    ar
14    7     19    1
15    7     8     2
16    8     9     1
17    8     27    1
18    9     10    2
19    9     11    1
20    11    18    ar
21    11    12    ar
22    12    13    1
23    12    14    ar
24    13    28    1
25    14    15    ar
26    14    29    1
27    15    16    1
28    15    17    ar
29    17    18    ar
30    17    30    1
31    18    19    1
32    20    21    ar
33    20    31    1
34    21    32    1
@<TRIPOS>SUBSTRUCTURE
1   ZINC000003871358 1     RESIDUE    1   A     ZIN   1


@<TRIPOS>MOLECULE
C1=CC(=CC=C1C2=CC(=O)C3=C(C=C(C=C3O2)O)O)O
29    31    1     0     0
SMALL
USER_CHARGES
@<TRIPOS>ATOM
1      O1      0.0021   -0.0041    0.0020 O.2      1 ZINC000003871576   -0.5000
2      C2     -0.0145    1.2162    0.0087 C.2      1 ZINC000003871576    0.4300
3      C3     -1.2333    1.9348    0.0302 C.2      1 ZINC000003871576   -0.3100
4      C4     -1.2100    3.2948    0.0375 C.2      1 ZINC000003871576    0.1900
5      C5     -2.4908    4.0260    0.0599 C.ar     1 ZINC000003871576   -0.0600
6      C6     -3.6989    3.3232    0.0792 C.ar     1 ZINC000003871576   -0.0700
7      C7     -4.8925    4.0100    0.1006 C.ar     1 ZINC000003871576   -0.1500
8      C8     -4.8970    5.3997    0.1026 C.ar     1 ZINC000003871576    0.1200
9      O9     -6.0758    6.0727    0.1233 O.3      1 ZINC000003871576   -0.5000
10     C10    -3.6982    6.1025    0.0840 C.ar     1 ZINC000003871576   -0.1500
11     C11    -2.4999    5.4237    0.0679 C.ar     1 ZINC000003871576   -0.0700
12     O12    -0.0658    3.9970    0.0254 O.3      1 ZINC000003871576   -0.2300
13     C13     1.1455    3.4014    0.0049 C.ar     1 ZINC000003871576    0.1900
14     C14     2.3074    4.1567   -0.0064 C.ar     1 ZINC000003871576   -0.2900
15     C15     3.5433    3.5285   -0.0272 C.ar     1 ZINC000003871576    0.3200
16     O16     4.6768    4.2755   -0.0382 O.3      1 ZINC000003871576   -0.6900
17     C17     3.6330    2.1411   -0.0363 C.ar     1 ZINC000003871576   -0.2900
18     C18     2.4847    1.3706   -0.0257 C.ar     1 ZINC000003871576    0.2200
19     O19     2.5700    0.0162   -0.0350 O.3      1 ZINC000003871576   -0.4900
20     C20     1.2334    1.9984    0.0010 C.ar     1 ZINC000003871576   -0.3700
21     H21    -2.1755    1.4071    0.0404 H        1 ZINC000003871576    0.1500
22     H22    -3.6963    2.2432    0.0769 H        1 ZINC000003871576    0.1400
23     H23    -5.8264    3.4677    0.1154 H        1 ZINC000003871576    0.1400
24     H24    -6.4026    6.2665    1.0126 H        1 ZINC000003871576    0.3900
25     H25    -3.7061    7.1825    0.0860 H        1 ZINC000003871576    0.1300
26     H26    -1.5687    5.9707    0.0538 H        1 ZINC000003871576    0.1400
27     H27     2.2501    5.2351    0.0005 H        1 ZINC000003871576    0.1200
28     H28     4.6018    1.6640   -0.0521 H        1 ZINC000003871576    0.1200
29     H29     2.6065   -0.3816    0.8456 H        1 ZINC000003871576    0.3800
@<TRIPOS>BOND
1     1     2     2
2     2     20    1
3     2     3     1
4     3     4     2
5     3     21    1
6     4     5     1
7     4     12    1
8     5     11    ar
9     5     6     ar
10    6     7     ar
11    6     22    1
12    7     8     ar
13    7     23    1
14    8     9     1
15    8     10    ar
16    9     24    1
17    10    11    ar
18    10    25    1
19    11    26    1
20    12    13    1
21    13    20    ar
22    13    14    ar
23    14    15    ar
24    14    27    1
25    15    16    1
26    15    17    ar
27    17    18    ar
28    17    28    1
29    18    19    1
30    18    20    ar
31    19    29    1
@<TRIPOS>SUBSTRUCTURE
1   ZINC000003871576 1     RESIDUE    1   A     ZIN   1


@<TRIPOS>MOLECULE
COC1=CC=C(C=C1)C2=COC3=CC(=CC(=C3C2=O)O)O
32    34    1     0     0
SMALL
USER_CHARGES
@<TRIPOS>ATOM
1      C1     -0.0173    1.4248    0.0099 C.3      1 ZINC000018847037    0.0300
2      O2      0.0021   -0.0041    0.0020 O.3      1 ZINC000018847037   -0.3200
3      C3      0.6259   -0.6184    1.0416 C.ar     1 ZINC000018847037    0.1200
4      C4      1.2017    0.1413    2.0505 C.ar     1 ZINC000018847037   -0.2100
5      C5      1.8355   -0.4792    3.1068 C.ar     1 ZINC000018847037   -0.0700
6      C6      1.8969   -1.8706    3.1607 C.ar     1 ZINC000018847037   -0.0400
7      C7      2.5773   -2.5411    4.2955 C.2      1 ZINC000018847037   -0.2600
8      C8      2.0902   -2.4421    5.5591 C.2      1 ZINC000018847037    0.1200
9      O9      2.6576   -3.0404    6.6069 O.3      1 ZINC000018847037   -0.2200
10     C10     3.9154   -3.5174    6.5438 C.ar     1 ZINC000018847037    0.1800
11     C11     4.6068   -3.8329    7.7052 C.ar     1 ZINC000018847037   -0.2900
12     C12     5.8974   -4.3323    7.6328 C.ar     1 ZINC000018847037    0.3200
13     O13     6.5646   -4.6350    8.7756 O.3      1 ZINC000018847037   -0.6900
14     C14     6.5170   -4.5275    6.4032 C.ar     1 ZINC000018847037   -0.2900
15     C15     5.8475   -4.2175    5.2336 C.ar     1 ZINC000018847037    0.2200
16     O16     6.4460   -4.4099    4.0310 O.3      1 ZINC000018847037   -0.4900
17     C17     4.5472   -3.7036    5.3006 C.ar     1 ZINC000018847037   -0.3700
18     C18     3.8002   -3.3404    4.0828 C.2      1 ZINC000018847037    0.4400
19     O19     4.1715   -3.6757    2.9709 O.2      1 ZINC000018847037   -0.4900
20     C20     1.3173   -2.6308    2.1463 C.ar     1 ZINC000018847037   -0.0500
21     C21     0.6807   -2.0044    1.0951 C.ar     1 ZINC000018847037   -0.1500
22     H22     1.0053    1.8021    0.0021 H        1 ZINC000018847037    0.0500
23     H23    -0.5445    1.7859   -0.8732 H        1 ZINC000018847037    0.1000
24     H24    -0.5275    1.7763    0.9067 H        1 ZINC000018847037    0.0500
25     H25     1.1538    1.2194    2.0081 H        1 ZINC000018847037    0.1300
26     H26     2.2840    0.1125    3.8911 H        1 ZINC000018847037    0.1300
27     H27     1.2016   -1.8506    5.7232 H        1 ZINC000018847037    0.1800
28     H28     4.1381   -3.6885    8.6674 H        1 ZINC000018847037    0.1200
29     H29     7.5219   -4.9211    6.3618 H        1 ZINC000018847037    0.1200
30     H30     6.2936   -5.2862    3.6515 H        1 ZINC000018847037    0.3900
31     H31     1.3635   -3.7091    2.1850 H        1 ZINC000018847037    0.1300
32     H32     0.2314   -2.5927    0.3087 H        1 ZINC000018847037    0.1300
@<TRIPOS>BOND
1     1     2     1
2     1     22    1
3     1     23    1
4     1     24    1
5     2     3     1
6     3     21    ar
7     3     4     ar
8     4     5     ar
9     4     25    1
10    5     6     ar
11    5     26    1
12    6     7     1
13    6     20    ar
14    7     18    1
15    7     8     2
16    8     9     1
17    8     27    1
18    9     10    1
19    10    17    ar
20    10    11    ar
21    11    12    ar
22    11    28    1
23    12    13    1
24    12    14    ar
25    14    15    ar
26    14    29    1
27    15    16    1
28    15    17    ar
29    16    30    1
30    17    18    1
31    18    19    2
32    20    21    ar
33    20    31    1
34    21    32    1
@<TRIPOS>SUBSTRUCTURE
1   ZINC000018847037 1     RESIDUE    1   A     ZIN   1


@<TRIPOS>MOLECULE
C1=CC(=CC=C1C2=COC3=C(C2=O)C=CC(=C3)O)O
28    30    1     0     0
SMALL
USER_CHARGES
@<TRIPOS>ATOM
1      O1      0.0021   -0.0041    0.0020 O.2      1 ZINC000018847034   -0.5000
2      C2     -0.0145    1.2148    0.0087 C.2      1 ZINC000018847034    0.4400
3      C3     -1.2747    1.9819    0.0312 C.ar     1 ZINC000018847034   -0.3500
4      C4     -2.5028    1.3693   -0.2144 C.ar     1 ZINC000018847034    0.0000
5      C5     -3.6475    2.1148   -0.1926 C.ar     1 ZINC000018847034   -0.2600
6      C6     -3.5902    3.4813    0.0721 C.ar     1 ZINC000018847034    0.3100
7      O7     -4.7345    4.2114    0.0866 O.3      1 ZINC000018847034   -0.7000
8      C8     -2.3781    4.1024    0.3211 C.ar     1 ZINC000018847034   -0.2900
9      C9     -1.2045    3.3591    0.3074 C.ar     1 ZINC000018847034    0.1700
10     O10    -0.0207    3.9467    0.5636 O.3      1 ZINC000018847034   -0.2300
11     C11     1.1309    3.3433    0.2692 C.2      1 ZINC000018847034    0.1300
12     C12     1.2247    2.0160    0.0012 C.2      1 ZINC000018847034   -0.2700
13     C13     2.5347    1.3894   -0.3013 C.ar     1 ZINC000018847034   -0.0100
14     C14     2.7767    0.8517   -1.5643 C.ar     1 ZINC000018847034   -0.0800
15     C15     3.9958    0.2696   -1.8424 C.ar     1 ZINC000018847034   -0.1400
16     C16     4.9813    0.2190   -0.8662 C.ar     1 ZINC000018847034    0.0900
17     O17     6.1816   -0.3552   -1.1433 O.3      1 ZINC000018847034   -0.5000
18     C18     4.7436    0.7540    0.3924 C.ar     1 ZINC000018847034   -0.1400
19     C19     3.5283    1.3421    0.6751 C.ar     1 ZINC000018847034   -0.1000
20     H20    -2.5490    0.3103   -0.4212 H        1 ZINC000018847034    0.1100
21     H21    -4.6005    1.6431   -0.3816 H        1 ZINC000018847034    0.1100
22     H22    -2.3449    5.1625    0.5249 H        1 ZINC000018847034    0.1200
23     H23     2.0321    3.9380    0.2471 H        1 ZINC000018847034    0.1800
24     H24     2.0102    0.8904   -2.3242 H        1 ZINC000018847034    0.1300
25     H25     4.1838   -0.1475   -2.8208 H        1 ZINC000018847034    0.1300
26     H26     6.8394    0.2594   -1.4964 H        1 ZINC000018847034    0.3900
27     H27     5.5123    0.7131    1.1499 H        1 ZINC000018847034    0.1300
28     H28     3.3441    1.7585    1.6544 H        1 ZINC000018847034    0.1300
@<TRIPOS>BOND
1     1     2     2
2     2     12    1
3     2     3     1
4     3     9     ar
5     3     4     ar
6     4     5     ar
7     4     20    1
8     5     6     ar
9     5     21    1
10    6     7     1
11    6     8     ar
12    8     9     ar
13    8     22    1
14    9     10    1
15    10    11    1
16    11    12    2
17    11    23    1
18    12    13    1
19    13    19    ar
20    13    14    ar
21    14    15    ar
22    14    24    1
23    15    16    ar
24    15    25    1
25    16    17    1
26    16    18    ar
27    17    26    1
28    18    19    ar
29    18    27    1
30    19    28    1
@<TRIPOS>SUBSTRUCTURE
1   ZINC000018847034 1     RESIDUE    1   A     ZIN   1


@<TRIPOS>MOLECULE
C1=CC(=C(C=C1C2=C(C(=O)C3=C(O2)C=C(C=C3)O)O)O)O
30    32    1     0     0
SMALL
USER_CHARGES
@<TRIPOS>ATOM
1      O1     -0.0004   -0.0017   -0.0958 O.2      1 ZINC000000039111   -0.5100
2      C2     -0.0158    1.2176   -0.0437 C.2      1 ZINC000000039111    0.4000
3      C3     -1.2838    1.9649    0.0349 C.ar     1 ZINC000000039111   -0.3500
4      C4     -2.5131    1.3051    0.0531 C.ar     1 ZINC000000039111    0.0100
5      C5     -3.6698    2.0282    0.1269 C.ar     1 ZINC000000039111   -0.2600
6      C6     -3.6282    3.4193    0.1836 C.ar     1 ZINC000000039111    0.3200
7      O7     -4.7858    4.1248    0.2562 O.3      1 ZINC000000039111   -0.6900
8      C8     -2.4158    4.0888    0.1669 C.ar     1 ZINC000000039111   -0.2900
9      C9     -1.2323    3.3686    0.0922 C.ar     1 ZINC000000039111    0.1900
10     O10    -0.0396    3.9988    0.0750 O.3      1 ZINC000000039111   -0.2100
11     C11     1.1247    3.3315    0.0038 C.2      1 ZINC000000039111    0.1200
12     C12     2.3832    4.0994   -0.0099 C.ar     1 ZINC000000039111   -0.0200
13     C13     2.5238    5.1986   -0.8611 C.ar     1 ZINC000000039111   -0.0800
14     C14     3.7015    5.9153   -0.8724 C.ar     1 ZINC000000039111   -0.1300
15     C15     4.7491    5.5480   -0.0400 C.ar     1 ZINC000000039111    0.0900
16     O16     5.9076    6.2578   -0.0551 O.3      1 ZINC000000039111   -0.4900
17     C17     4.6158    4.4527    0.8122 C.ar     1 ZINC000000039111    0.0800
18     O18     5.6446    4.0960    1.6269 O.3      1 ZINC000000039111   -0.4900
19     C19     3.4370    3.7330    0.8329 C.ar     1 ZINC000000039111   -0.0800
20     C20     1.1856    1.9705   -0.0503 C.2      1 ZINC000000039111   -0.0500
21     O21     2.3896    1.3402   -0.1213 O.3      1 ZINC000000039111   -0.4600
22     H22    -2.5500    0.2266    0.0086 H        1 ZINC000000039111    0.1200
23     H23    -4.6218    1.5184    0.1411 H        1 ZINC000000039111    0.1100
24     H24    -2.3918    5.1677    0.2111 H        1 ZINC000000039111    0.1200
25     H25     1.7101    5.4865   -1.5103 H        1 ZINC000000039111    0.1400
26     H26     3.8091    6.7645   -1.5310 H        1 ZINC000000039111    0.1400
27     H27     5.9265    6.9932    0.5725 H        1 ZINC000000039111    0.3900
28     H28     5.6256    4.5229    2.4943 H        1 ZINC000000039111    0.3900
29     H29     3.3325    2.8843    1.4926 H        1 ZINC000000039111    0.1400
30     H30     2.3273    0.3758   -0.1555 H        1 ZINC000000039111    0.4000
@<TRIPOS>BOND
1     1     2     2
2     2     20    1
3     2     3     1
4     3     9     ar
5     3     4     ar
6     4     5     ar
7     4     22    1
8     5     6     ar
9     5     23    1
10    6     7     1
11    6     8     ar
12    8     9     ar
13    8     24    1
14    9     10    1
15    10    11    1
16    11    12    1
17    11    20    2
18    12    19    ar
19    12    13    ar
20    13    14    ar
21    13    25    1
22    14    15    ar
23    14    26    1
24    15    16    1
25    15    17    ar
26    16    27    1
27    17    18    1
28    17    19    ar
29    18    28    1
30    19    29    1
31    20    21    1
32    21    30    1
@<TRIPOS>SUBSTRUCTURE
1   ZINC000000039111 1     RESIDUE    1   A     ZIN   1


@<TRIPOS>MOLECULE
C1=CC=C(C=C1)C2=C(C(=O)C3=C(C=C(C=C3O2)O)O)O
29    31    1     0     0
SMALL
USER_CHARGES
@<TRIPOS>ATOM
1      O1     -0.9165    1.1862   -0.0639 O.2      1 ZINC000000120273   -0.5400
2      C2     -0.5763    2.3587   -0.0200 C.2      1 ZINC000000120273    0.4200
3      C3     -1.5308    3.3844    0.0381 C.2      1 ZINC000000120273   -0.4900
4      C4     -1.1356    4.7037    0.0823 C.2      1 ZINC000000120273    0.3200
5      O5     -2.0856    5.6677    0.1467 O.3      1 ZINC000000120273   -0.6800
6      C6      0.2117    5.0848    0.0634 C.2      1 ZINC000000120273   -0.1500
7      C7      1.2070    4.1569    0.0037 C.2      1 ZINC000000120273    0.1000
8      O8      2.5039    4.5426   -0.0402 O.3      1 ZINC000000120273   -0.2900
9      C9      3.4781    3.6588    0.5261 C.3      1 ZINC000000120273    0.1100
10     C10     3.3163    3.6169    2.0238 C.ar     1 ZINC000000120273   -0.1300
11     C11     4.2956    3.0376    2.8088 C.ar     1 ZINC000000120273   -0.1100
12     C12     4.1472    2.9991    4.1826 C.ar     1 ZINC000000120273   -0.1200
13     C13     3.0198    3.5404    4.7715 C.ar     1 ZINC000000120273   -0.1100
14     C14     2.0409    4.1205    3.9865 C.ar     1 ZINC000000120273   -0.1100
15     C15     2.1913    4.1628    2.6130 C.ar     1 ZINC000000120273   -0.1000
16     C16     3.2563    2.2743   -0.0510 C.2      1 ZINC000000120273    0.3500
17     O17     4.1704    1.6110   -0.4799 O.2      1 ZINC000000120273   -0.4200
18     C18     1.8490    1.7724   -0.0613 C.2      1 ZINC000000120273    0.0800
19     O19     1.5656    0.4564   -0.1025 O.3      1 ZINC000000120273   -0.4100
20     C20     0.8495    2.7344   -0.0205 C.2      1 ZINC000000120273   -0.1600
21     H21    -2.5825    3.1387    0.0480 H        1 ZINC000000120273    0.1100
22     H22     0.4663    6.1338    0.0964 H        1 ZINC000000120273    0.1300
23     H23     4.4800    4.0064    0.2743 H        1 ZINC000000120273    0.1500
24     H24     5.1765    2.6147    2.3487 H        1 ZINC000000120273    0.1200
25     H25     4.9120    2.5459    4.7959 H        1 ZINC000000120273    0.1200
26     H26     2.9035    3.5097    5.8448 H        1 ZINC000000120273    0.1200
27     H27     1.1599    4.5431    4.4466 H        1 ZINC000000120273    0.1300
28     H28     1.4265    4.6161    1.9998 H        1 ZINC000000120273    0.1400
29     H29     2.3155   -0.1537   -0.1253 H        1 ZINC000000120273    0.4000
@<TRIPOS>BOND
1     1     2     2
2     2     20    1
3     2     3     1
4     3     4     2
5     3     21    1
6     4     5     1
7     4     6     1
8     6     7     2
9     6     22    1
10    7     20    1
11    7     8     1
12    8     9     1
13    9     10    1
14    9     16    1
15    9     23    1
16    10    15    ar
17    10    11    ar
18    11    12    ar
19    11    24    1
20    12    13    ar
21    12    25    1
22    13    14    ar
23    13    26    1
24    14    15    ar
25    14    27    1
26    15    28    1
27    16    17    2
28    16    18    1
29    18    19    1
30    18    20    2
31    19    29    1
@<TRIPOS>SUBSTRUCTURE
1   ZINC000000120273 1     RESIDUE    1   A     ZIN   1


@<TRIPOS>MOLECULE
C1=CC(=CC=C1C2=COC3=CC(=CC(=C3C2=O)O)O)O
29    31    1     0     0
SMALL
USER_CHARGES
@<TRIPOS>ATOM
1      O1      0.0021   -0.0041    0.0020 O.2      1 ZINC000018825330   -0.4900
2      C2     -0.0145    1.2150    0.0087 C.2      1 ZINC000018825330    0.4400
3      C3     -1.2756    1.9824    0.0312 C.2      1 ZINC000018825330   -0.2700
4      C4     -2.5761    1.3210   -0.2359 C.ar     1 ZINC000018825330   -0.0100
5      C5     -3.0622    0.3553    0.6439 C.ar     1 ZINC000018825330   -0.0800
6      C6     -4.2719   -0.2579    0.3927 C.ar     1 ZINC000018825330   -0.1400
7      C7     -5.0051    0.0858   -0.7347 C.ar     1 ZINC000018825330    0.1000
8      O8     -6.1967   -0.5203   -0.9794 O.3      1 ZINC000018825330   -0.5000
9      C9     -4.5240    1.0474   -1.6125 C.ar     1 ZINC000018825330   -0.1400
10     C10    -3.3175    1.6681   -1.3641 C.ar     1 ZINC000018825330   -0.1000
11     C11    -1.2104    3.3109    0.3038 C.2      1 ZINC000018825330    0.1200
12     O12    -0.0675    3.9448    0.5677 O.3      1 ZINC000018825330   -0.2200
13     C13     1.1242    3.3900    0.2752 C.ar     1 ZINC000018825330    0.1800
14     C14     2.2736    4.1675    0.2464 C.ar     1 ZINC000018825330   -0.2900
15     C15     3.4983    3.5885   -0.0451 C.ar     1 ZINC000018825330    0.3200
16     O16     4.6152    4.3595   -0.0723 O.3      1 ZINC000018825330   -0.6900
17     C17     3.5967    2.2268   -0.3096 C.ar     1 ZINC000018825330   -0.2900
18     C18     2.4638    1.4339   -0.2897 C.ar     1 ZINC000018825330    0.2200
19     O19     2.5547    0.1042   -0.5443 O.3      1 ZINC000018825330   -0.4900
20     C20     1.2225    2.0146    0.0012 C.ar     1 ZINC000018825330   -0.3700
21     H21    -2.4920    0.0872    1.5211 H        1 ZINC000018825330    0.1300
22     H22    -4.6489   -1.0065    1.0738 H        1 ZINC000018825330    0.1300
23     H23    -6.9562   -0.0667   -0.5889 H        1 ZINC000018825330    0.3900
24     H24    -5.0969    1.3130   -2.4886 H        1 ZINC000018825330    0.1300
25     H25    -2.9437    2.4163   -2.0474 H        1 ZINC000018825330    0.1300
26     H26    -2.1277    3.8811    0.3074 H        1 ZINC000018825330    0.1800
27     H27     2.2132    5.2262    0.4513 H        1 ZINC000018825330    0.1200
28     H28     4.5585    1.7882   -0.5310 H        1 ZINC000018825330    0.1200
29     H29     2.7056   -0.4375    0.2424 H        1 ZINC000018825330    0.3900
@<TRIPOS>BOND
1     1     2     2
2     2     20    1
3     2     3     1
4     3     4     1
5     3     11    2
6     4     10    ar
7     4     5     ar
8     5     6     ar
9     5     21    1
10    6     7     ar
11    6     22    1
12    7     8     1
13    7     9     ar
14    8     23    1
15    9     10    ar
16    9     24    1
17    10    25    1
18    11    12    1
19    11    26    1
20    12    13    1
21    13    20    ar
22    13    14    ar
23    14    15    ar
24    14    27    1
25    15    16    1
26    15    17    ar
27    17    18    ar
28    17    28    1
29    18    19    1
30    18    20    ar
31    19    29    1
@<TRIPOS>SUBSTRUCTURE
1   ZINC000018825330 1     RESIDUE    1   A     ZIN   1


@<TRIPOS>MOLECULE
COC1=C(C=C(C=C1)[C@@H]2CC(=O)C3=C(C=C(C=C3O2)O)O)O
36    38    1     0     0
SMALL
USER_CHARGES
@<TRIPOS>ATOM
1      C1     -0.0173    1.4248    0.0099 C.3      1 ZINC000000039091    0.0200
2      O2      0.0021   -0.0041    0.0020 O.3      1 ZINC000000039091   -0.3100
3      C3     -1.2011   -0.6379    0.0101 C.ar     1 ZINC000000039091    0.1200
4      C4     -2.3739    0.0992    0.0195 C.ar     1 ZINC000000039091   -0.2000
5      C5     -3.5965   -0.5469    0.0272 C.ar     1 ZINC000000039091   -0.0600
6      C6     -3.6519   -1.9279    0.0261 C.ar     1 ZINC000000039091   -0.1200
7      C7     -4.9869   -2.6268    0.0350 C.3      1 ZINC000000039091    0.1500
8      H8     -4.8639   -3.6505   -0.3185 H        1 ZINC000000039091    0.0900
9      C9     -5.5478   -2.6421    1.4645 C.3      1 ZINC000000039091   -0.1900
10     C10    -6.9029   -3.3243    1.4082 C.2      1 ZINC000000039091    0.4000
11     O11    -7.2637   -4.0985    2.2706 O.2      1 ZINC000000039091   -0.4200
12     C12    -7.7536   -3.0003    0.2578 C.ar     1 ZINC000000039091   -0.2900
13     C13    -9.1070   -3.3717    0.2407 C.ar     1 ZINC000000039091    0.2200
14     O14    -9.6490   -4.0267    1.2973 O.3      1 ZINC000000039091   -0.4800
15     C15    -9.8842   -3.0644   -0.8620 C.ar     1 ZINC000000039091   -0.2200
16     C16    -9.3256   -2.3914   -1.9414 C.ar     1 ZINC000000039091    0.2000
17     O17   -10.0943   -2.0972   -3.0199 O.3      1 ZINC000000039091   -0.4900
18     C18    -7.9880   -2.0161   -1.9276 C.ar     1 ZINC000000039091   -0.2000
19     C19    -7.1936   -2.3112   -0.8341 C.ar     1 ZINC000000039091    0.2100
20     O20    -5.8937   -1.9328   -0.8216 O.3      1 ZINC000000039091   -0.3000
21     C21    -2.4848   -2.6697    0.0163 C.ar     1 ZINC000000039091   -0.0900
22     C22    -1.2569   -2.0287    0.0032 C.ar     1 ZINC000000039091    0.0800
23     O23    -0.1082   -2.7567   -0.0065 O.3      1 ZINC000000039091   -0.4800
24     H24     1.0053    1.8021    0.0021 H        1 ZINC000000039091    0.1000
25     H25    -0.5445    1.7859   -0.8732 H        1 ZINC000000039091    0.0600
26     H26    -0.5275    1.7763    0.9067 H        1 ZINC000000039091    0.0600
27     H27    -2.3334    1.1784    0.0211 H        1 ZINC000000039091    0.1400
28     H28    -4.5102    0.0290    0.0345 H        1 ZINC000000039091    0.1300
29     H29    -4.8785   -3.1997    2.1198 H        1 ZINC000000039091    0.1200
30     H30    -5.6610   -1.6214    1.8297 H        1 ZINC000000039091    0.1200
31     H31   -10.0230   -3.4433    1.9718 H        1 ZINC000000039091    0.4000
32     H32   -10.9260   -3.3482   -0.8838 H        1 ZINC000000039091    0.1500
33     H33   -10.5373   -1.2394   -2.9649 H        1 ZINC000000039091    0.4000
34     H34    -7.5670   -1.4925   -2.7732 H        1 ZINC000000039091    0.1500
35     H35    -2.5308   -3.7487    0.0154 H        1 ZINC000000039091    0.1400
36     H36     0.2154   -2.9690   -0.8926 H        1 ZINC000000039091    0.3900
@<TRIPOS>BOND
1     1     2     1
2     1     24    1
3     1     25    1
4     1     26    1
5     2     3     1
6     3     22    ar
7     3     4     ar
8     4     5     ar
9     4     27    1
10    5     6     ar
11    5     28    1
12    6     7     1
13    6     21    ar
14    7     8     1
15    7     20    1
16    7     9     1
17    9     10    1
18    9     29    1
19    9     30    1
20    10    11    2
21    10    12    1
22    12    19    ar
23    12    13    ar
24    13    14    1
25    13    15    ar
26    14    31    1
27    15    16    ar
28    15    32    1
29    16    17    1
30    16    18    ar
31    17    33    1
32    18    19    ar
33    18    34    1
34    19    20    1
35    21    22    ar
36    21    35    1
37    22    23    1
38    23    36    1
@<TRIPOS>SUBSTRUCTURE
1   ZINC000000039091 1     RESIDUE    1   A     ZIN   1


@<TRIPOS>MOLECULE
C1C(OC2=CC(=CC(=C2C1=O)O)O)C3=CC=C(C=C3)O
32    34    1     0     0
SMALL
USER_CHARGES
@<TRIPOS>ATOM
1      O1      0.0021   -0.0041    0.0020 O.2      1 ZINC000000001785   -0.4300
2      C2     -0.0144    1.2096    0.0087 C.2      1 ZINC000000001785    0.4000
3      C3     -1.3165    1.9899    0.0318 C.3      1 ZINC000000001785   -0.1900
4      C4     -1.1162    3.1798    0.9816 C.3      1 ZINC000000001785    0.1500
5      H5     -0.8935    2.8122    1.9833 H        1 ZINC000000001785    0.0900
6      C6     -2.3727    4.0109    1.0186 C.ar     1 ZINC000000001785   -0.1000
7      C7     -2.6380    4.9066   -0.0008 C.ar     1 ZINC000000001785   -0.0700
8      C8     -3.7892    5.6696    0.0308 C.ar     1 ZINC000000001785   -0.1500
9      C9     -4.6796    5.5363    1.0863 C.ar     1 ZINC000000001785    0.1200
10     O10    -5.8130    6.2855    1.1194 O.3      1 ZINC000000001785   -0.5000
11     C11    -4.4113    4.6366    2.1076 C.ar     1 ZINC000000001785   -0.1400
12     C12    -3.2611    3.8724    2.0690 C.ar     1 ZINC000000001785   -0.0800
13     O13    -0.0293    3.9789    0.5148 O.3      1 ZINC000000001785   -0.3000
14     C14     1.1574    3.3779    0.2631 C.ar     1 ZINC000000001785    0.2100
15     C15     2.3232    4.1226    0.2665 C.ar     1 ZINC000000001785   -0.2000
16     C16     3.5430    3.5127    0.0014 C.ar     1 ZINC000000001785    0.2000
17     O17     4.6796    4.2536    0.0083 O.3      1 ZINC000000001785   -0.4900
18     C18     3.6111    2.1521   -0.2703 C.ar     1 ZINC000000001785   -0.2200
19     C19     2.4576    1.3878   -0.2759 C.ar     1 ZINC000000001785    0.2200
20     O20     2.5196    0.0595   -0.5418 O.3      1 ZINC000000001785   -0.4800
21     C21     1.2230    1.9976    0.0011 C.ar     1 ZINC000000001785   -0.2900
22     H22    -1.5513    2.3499   -0.9699 H        1 ZINC000000001785    0.1200
23     H23    -2.1234    1.3548    0.3975 H        1 ZINC000000001785    0.1200
24     H24    -1.9445    5.0100   -0.8223 H        1 ZINC000000001785    0.1300
25     H25    -3.9956    6.3696   -0.7654 H        1 ZINC000000001785    0.1300
26     H26    -6.5714    5.8707    0.6861 H        1 ZINC000000001785    0.3900
27     H27    -5.1028    4.5313    2.9306 H        1 ZINC000000001785    0.1300
28     H28    -3.0520    3.1716    2.8637 H        1 ZINC000000001785    0.1300
29     H29     2.2849    5.1815    0.4756 H        1 ZINC000000001785    0.1500
30     H30     5.1127    4.3013    0.8716 H        1 ZINC000000001785    0.4000
31     H31     4.5652    1.6903   -0.4771 H        1 ZINC000000001785    0.1500
32     H32     2.6442   -0.4931    0.2419 H        1 ZINC000000001785    0.4000
@<TRIPOS>BOND
1     1     2     2
2     2     21    1
3     2     3     1
4     3     4     1
5     3     22    1
6     3     23    1
7     4     5     1
8     4     6     1
9     4     13    1
10    6     12    ar
11    6     7     ar
12    7     8     ar
13    7     24    1
14    8     9     ar
15    8     25    1
16    9     10    1
17    9     11    ar
18    10    26    1
19    11    12    ar
20    11    27    1
21    12    28    1
22    13    14    1
23    14    21    ar
24    14    15    ar
25    15    16    ar
26    15    29    1
27    16    17    1
28    16    18    ar
29    17    30    1
30    18    19    ar
31    18    31    1
32    19    20    1
33    19    21    ar
34    20    32    1
@<TRIPOS>SUBSTRUCTURE
1   ZINC000000001785 1     RESIDUE    1   A     ZIN   1


@<TRIPOS>MOLECULE
C1=CC(=C(C=C1C2=C(C(=O)C3=C(C=C(C=C3O2)O)O)O)O)O
  31   33    0    0    0
SMALL
USER_CHARGES
NO_NAME
@<TRIPOS>ATOM
    1 O1       -0.9038     1.1636    -0.0631 O.2    1 <0>      -0.5400
    2 C2       -0.5695     2.3377    -0.0199 C.2    1 <0>       0.4200
    3 C3       -1.5293     3.3587     0.0376 C.2    1 <0>      -0.4900
    4 C4       -1.1408     4.6800     0.0810 C.2    1 <0>       0.3200
    5 O5       -2.0957     5.6392     0.1448 O.3    1 <0>      -0.6800
    6 C6        0.2045     5.0679     0.0621 C.2    1 <0>      -0.1500
    7 C7        1.2046     4.1451     0.0031 C.2    1 <0>       0.1000
    8 O8        2.4995     4.5373    -0.0408 O.3    1 <0>      -0.2900
    9 C9        3.4781     3.6588     0.5261 C.3    1 <0>       0.1100
   10 C10       3.3163     3.6169     2.0238 C.ar   1 <0>      -0.1200
   11 C11       4.2964     3.0373     2.8072 C.ar   1 <0>      -0.1000
   12 C12       4.1524     2.9959     4.1819 C.ar   1 <0>      -0.1300
   13 C13       3.0242     3.5366     4.7767 C.ar   1 <0>       0.0900
   14 O14       2.8813     3.4971     6.1286 O.3    1 <0>      -0.4900
   15 C15       2.0374     4.1207     3.9878 C.ar   1 <0>       0.0900
   16 O16       0.9282     4.6533     4.5671 O.3    1 <0>      -0.4800
   17 C17       2.1903     4.1635     2.6116 C.ar   1 <0>      -0.1100
   18 C18       3.2635     2.2729    -0.0502 C.2    1 <0>       0.3500
   19 O19       4.1810     1.6140    -0.4787 O.2    1 <0>      -0.4200
   20 C20       1.8587     1.7638    -0.0605 C.2    1 <0>       0.0800
   21 O21       1.5820     0.4464    -0.1010 O.3    1 <0>      -0.4100
   22 C22       0.8543     2.7208    -0.0203 C.2    1 <0>      -0.1600
   23 H23      -2.5797     3.1077     0.0475 H      1 <0>       0.1100
   24 H24       0.4538     6.1183     0.0946 H      1 <0>       0.1300
   25 H25       4.4783     4.0113     0.2743 H      1 <0>       0.1600
   26 H26       5.1764     2.6154     2.3447 H      1 <0>       0.1300
   27 H27       4.9194     2.5418     4.7918 H      1 <0>       0.1400
   28 H28       3.2488     4.2661     6.5855 H      1 <0>       0.3900
   29 H29       1.0165     5.5875     4.8006 H      1 <0>       0.3900
   30 H30       1.4261     4.6161     1.9972 H      1 <0>       0.1600
   31 H31       2.3350    -0.1599    -0.1234 H      1 <0>       0.4000
@<TRIPOS>BOND
   1    1    2 2
   2    2   22 1
   3    2    3 1
   4    3    4 2
   5    3   23 1
   6    4    5 1
   7    4    6 1
   8    6    7 2
   9    6   24 1
  10    7   22 1
  11    7    8 1
  12    8    9 1
  13    9   10 1
  14    9   18 1
  15    9   25 1
  16   10   17 ar
  17   10   11 ar
  18   11   12 ar
  19   11   26 1
  20   12   13 ar
  21   12   27 1
  22   13   14 1
  23   13   15 ar
  24   14   28 1
  25   15   16 1
  26   15   17 ar
  27   16   29 1
  28   17   30 1
  29   18   19 2
  30   18   20 1
  31   20   21 1
  32   20   22 2
  33   21   31 1


@<TRIPOS>MOLECULE
C1=CC(=CC=C1C=CC2=CC(=CC(=C2)O)O)O
  29   30    0    0    0
SMALL
USER_CHARGES
NO_NAME
@<TRIPOS>ATOM
    1 O1       -0.0163     1.3543     0.0095 O.3    1 <0>      -0.5000
    2 C2        0.0021    -0.0041     0.0020 C.ar   1 <0>       0.1100
    3 C3        0.0057    -0.6897    -1.2060 C.ar   1 <0>      -0.1400
    4 C4        0.0244    -2.0675    -1.2186 C.ar   1 <0>      -0.0900
    5 C5        0.0397    -2.7751    -0.0132 C.ar   1 <0>      -0.0700
    6 C6        0.0601    -4.2484    -0.0213 C.2    1 <0>      -0.0900
    7 C7        0.0748    -4.9260     1.1377 C.2    1 <0>      -0.1100
    8 C8        0.0953    -6.3997     1.1296 C.ar   1 <0>      -0.0200
    9 C9        0.1053    -7.0937    -0.0826 C.ar   1 <0>      -0.1500
   10 C10       0.1250    -8.4782    -0.0849 C.ar   1 <0>       0.1300
   11 O11       0.1348    -9.1545    -1.2637 O.3    1 <0>      -0.5000
   12 C12       0.1353    -9.1763     1.1143 C.ar   1 <0>      -0.1700
   13 C13       0.1254    -8.4915     2.3212 C.ar   1 <0>       0.1300
   14 O14       0.1360    -9.1807     3.4924 O.3    1 <0>      -0.5000
   15 C15       0.1106    -7.1069     2.3341 C.ar   1 <0>      -0.1400
   16 C16       0.0359    -2.0807     1.1999 C.ar   1 <0>      -0.0900
   17 C17       0.0230    -0.7028     1.2023 C.ar   1 <0>      -0.1400
   18 H18       0.8616     1.7596     0.0033 H      1 <0>       0.3900
   19 H19      -0.0065    -0.1421    -2.1368 H      1 <0>       0.1300
   20 H20       0.0268    -2.5998    -2.1583 H      1 <0>       0.1300
   21 H21       0.0633    -4.7832    -0.9596 H      1 <0>       0.1300
   22 H22       0.0716    -4.3911     2.0760 H      1 <0>       0.1300
   23 H23       0.0973    -6.5513    -1.0164 H      1 <0>       0.1400
   24 H24       1.0209    -9.3377    -1.6047 H      1 <0>       0.3900
   25 H25       0.1507   -10.2562     1.1084 H      1 <0>       0.1400
   26 H26       1.0223    -9.3670     3.8312 H      1 <0>       0.3900
   27 H27       0.1029    -6.5748     3.2739 H      1 <0>       0.1400
   28 H28       0.0477    -2.6231     2.1337 H      1 <0>       0.1300
   29 H29       0.0204    -0.1653     2.1391 H      1 <0>       0.1300
@<TRIPOS>BOND
   1    1    2 1
   2    1   18 1
   3    2   17 ar
   4    2    3 ar
   5    3    4 ar
   6    3   19 1
   7    4    5 ar
   8    4   20 1
   9    5    6 1
  10    5   16 ar
  11    6    7 2
  12    6   21 1
  13    7    8 1
  14    7   22 1
  15    8   15 ar
  16    8    9 ar
  17    9   10 ar
  18    9   23 1
  19   10   11 1
  20   10   12 ar
  21   11   24 1
  22   12   13 ar
  23   12   25 1
  24   13   14 1
  25   13   15 ar
  26   14   26 1
  27   15   27 1
  28   16   17 ar
  29   16   28 1
  30   17   29 1


@<TRIPOS>MOLECULE
CC1CC2=CC3=C(C(=C2C4=C(C(=C(C=C4CC1C)OC)OC)OC)OC)OCO3
57    60    1     0     0
SMALL
USER_CHARGES
@<TRIPOS>ATOM
1      C1     -0.1968    1.4401   -0.2057 C.3      1 ZINC000001531882    0.0200
2      O2     -0.1101    0.0151   -0.1418 O.3      1 ZINC000001531882   -0.3000
3      C3      0.5592   -0.6084   -1.1482 C.ar     1 ZINC000001531882    0.1300
4      C4      1.1259    0.1381   -2.1733 C.ar     1 ZINC000001531882   -0.2000
5      C5      1.7947   -0.4954   -3.1947 C.ar     1 ZINC000001531882   -0.0100
6      C6      1.8993   -1.8849   -3.2286 C.ar     1 ZINC000001531882   -0.0900
7      C7      1.3449   -2.6356   -2.1844 C.ar     1 ZINC000001531882    0.1500
8      O8      1.4616   -3.9903   -2.1826 O.3      1 ZINC000001531882   -0.3100
9      C9      0.3803   -4.7354   -2.7462 C.3      1 ZINC000001531882    0.0400
10     C10     0.6818   -1.9938   -1.1490 C.ar     1 ZINC000001531882    0.0300
11     O11     0.1399   -2.7231   -0.1357 O.3      1 ZINC000001531882   -0.3200
12     C12     0.9727   -2.9786    0.9970 C.3      1 ZINC000001531882    0.0400
13     C13     2.5457   -2.5679   -4.3658 C.ar     1 ZINC000001531882   -0.0400
14     C14     2.0736   -2.3970   -5.6658 C.ar     1 ZINC000001531882   -0.0400
15     C15     2.7047   -2.9961   -6.7310 C.ar     1 ZINC000001531882   -0.1100
16     C16     3.8079   -3.8116   -6.5144 C.ar     1 ZINC000001531882    0.0500
17     O17     4.5936   -4.5152   -7.3809 O.3      1 ZINC000001531882   -0.3000
18     C18     5.7887   -4.8357   -6.6450 C.3      1 ZINC000001531882    0.2100
19     O19     5.3505   -4.8601   -5.2738 O.3      1 ZINC000001531882   -0.3000
20     C20     4.2753   -4.0180   -5.2195 C.ar     1 ZINC000001531882    0.0000
21     C21     3.6532   -3.3963   -4.1467 C.ar     1 ZINC000001531882    0.1400
22     O22     4.1186   -3.5908   -2.8840 O.3      1 ZINC000001531882   -0.3100
23     C23     5.1155   -2.6818   -2.4128 C.3      1 ZINC000001531882    0.0400
24     C24     0.8189   -1.5743   -5.8738 C.3      1 ZINC000001531882   -0.0800
25     C25     1.1974   -0.1966   -6.4166 C.3      1 ZINC000001531882   -0.0800
26     H26     2.1246   -0.2767   -6.9841 H        1 ZINC000001531882    0.0700
27     C27     0.0842    0.3049   -7.3387 C.3      1 ZINC000001531882   -0.1500
28     C28     1.3906    0.7987   -5.2763 C.3      1 ZINC000001531882   -0.0800
29     H29     1.7000    1.7597   -5.6874 H        1 ZINC000001531882    0.0800
30     C30     0.0663    0.9732   -4.5302 C.3      1 ZINC000001531882   -0.1600
31     C31     2.4562    0.3027   -4.2993 C.3      1 ZINC000001531882   -0.0800
32     H32     0.8066    1.8658   -0.1979 H        1 ZINC000001531882    0.0600
33     H33    -0.7084    1.7322   -1.1227 H        1 ZINC000001531882    0.0600
34     H34    -0.7547    1.8090    0.6550 H        1 ZINC000001531882    0.1000
35     H35     1.0411    1.2147   -2.1686 H        1 ZINC000001531882    0.1400
36     H36     0.3000   -4.5112   -3.8099 H        1 ZINC000001531882    0.0400
37     H37     0.5648   -5.8013   -2.6124 H        1 ZINC000001531882    0.0900
38     H38    -0.5489   -4.4620   -2.2462 H        1 ZINC000001531882    0.0500
39     H39     1.3378   -2.0340    1.4001 H        1 ZINC000001531882    0.0400
40     H40     0.3968   -3.5012    1.7609 H        1 ZINC000001531882    0.0900
41     H41     1.8187   -3.5957    0.6943 H        1 ZINC000001531882    0.0500
42     H42     2.3424   -2.8328   -7.7352 H        1 ZINC000001531882    0.1400
43     H43     6.1711   -5.8122   -6.9422 H        1 ZINC000001531882    0.1300
44     H44     6.5464   -4.0660   -6.7913 H        1 ZINC000001531882    0.0800
45     H45     4.7170   -1.6673   -2.4250 H        1 ZINC000001531882    0.0500
46     H46     5.3984   -2.9488   -1.3945 H        1 ZINC000001531882    0.1000
47     H47     5.9913   -2.7360   -3.0593 H        1 ZINC000001531882    0.0400
48     H48     0.1673   -2.0793   -6.5868 H        1 ZINC000001531882    0.0800
49     H49     0.2978   -1.4597   -4.9232 H        1 ZINC000001531882    0.0900
50     H50    -0.8477    0.3764   -6.7777 H        1 ZINC000001531882    0.0600
51     H51     0.3501    1.2875   -7.7282 H        1 ZINC000001531882    0.0600
52     H52    -0.0430   -0.3921   -8.1671 H        1 ZINC000001531882    0.0600
53     H53    -0.2526    0.0122   -4.1265 H        1 ZINC000001531882    0.0600
54     H54     0.1997    1.6837   -3.7144 H        1 ZINC000001531882    0.0600
55     H55    -0.6917    1.3479   -5.2181 H        1 ZINC000001531882    0.0600
56     H56     2.9791    1.1562   -3.8678 H        1 ZINC000001531882    0.0800
57     H57     3.1683   -0.3303   -4.8287 H        1 ZINC000001531882    0.0800
@<TRIPOS>BOND
1     1     2     1
2     1     32    1
3     1     33    1
4     1     34    1
5     2     3     1
6     3     10    ar
7     3     4     ar
8     4     5     ar
9     4     35    1
10    5     31    1
11    5     6     ar
12    6     7     ar
13    6     13    1
14    7     8     1
15    7     10    ar
16    8     9     1
17    9     36    1
18    9     37    1
19    9     38    1
20    10    11    1
21    11    12    1
22    12    39    1
23    12    40    1
24    12    41    1
25    13    21    ar
26    13    14    ar
27    14    15    ar
28    14    24    1
29    15    16    ar
30    15    42    1
31    16    20    ar
32    16    17    1
33    17    18    1
34    18    19    1
35    18    43    1
36    18    44    1
37    19    20    1
38    20    21    ar
39    21    22    1
40    22    23    1
41    23    45    1
42    23    46    1
43    23    47    1
44    24    25    1
45    24    48    1
46    24    49    1
47    25    26    1
48    25    27    1
49    25    28    1
50    27    50    1
51    27    51    1
52    27    52    1
53    28    29    1
54    28    30    1
55    28    31    1
56    30    53    1
57    30    54    1
58    30    55    1
59    31    56    1
60    31    57    1
@<TRIPOS>SUBSTRUCTURE
1   ZINC000001531882 1     RESIDUE    1   A     ZIN   1


@<TRIPOS>MOLECULE
COC1=C(C=CC(=C1)C=CC(=O)CC(=O)C=CC2=CC(=C(C=C2)O)OC)O
47    48    1     0     0
SMALL
USER_CHARGES
@<TRIPOS>ATOM
1      C1     -0.0173    1.4248    0.0099 C.3      1 ZINC000000899824    0.0200
2      O2      0.0021   -0.0041    0.0020 O.3      1 ZINC000000899824   -0.3100
3      C3     -1.2011   -0.6379    0.0101 C.ar     1 ZINC000000899824    0.1000
4      C4     -2.3683    0.0982    0.0195 C.ar     1 ZINC000000899824   -0.1700
5      C5     -3.6061   -0.5585    0.0278 C.ar     1 ZINC000000899824   -0.0600
6      C6     -4.8515    0.2183    0.0373 C.2      1 ZINC000000899824    0.0000
7      C7     -6.0479   -0.4192    0.0454 C.2      1 ZINC000000899824   -0.2400
8      C8     -7.2424    0.3259    0.0545 C.2      1 ZINC000000899824    0.3700
9      O9     -7.2010    1.5399    0.0552 O.2      1 ZINC000000899824   -0.4300
10     C10    -8.5723   -0.3828    0.0635 C.3      1 ZINC000000899824   -0.2200
11     C11    -9.6837    0.6349    0.0722 C.2      1 ZINC000000899824    0.3700
12     O12    -9.4212    1.8210    0.0713 O.2      1 ZINC000000899824   -0.4300
13     C13   -11.0262    0.2111    0.0815 C.2      1 ZINC000000899824   -0.2400
14     C14   -12.0260    1.1266    0.0894 C.2      1 ZINC000000899824    0.0000
15     C15   -13.4257    0.6847    0.0990 C.ar     1 ZINC000000899824   -0.0500
16     C16   -13.7307   -0.6820    0.1059 C.ar     1 ZINC000000899824   -0.1200
17     C17   -15.0451   -1.0935    0.1155 C.ar     1 ZINC000000899824   -0.1100
18     C18   -16.0700   -0.1565    0.1182 C.ar     1 ZINC000000899824    0.0900
19     O19   -17.3638   -0.5687    0.1281 O.3      1 ZINC000000899824   -0.4800
20     C20   -15.7746    1.2071    0.1114 C.ar     1 ZINC000000899824    0.1000
21     O21   -16.7819    2.1208    0.1146 O.3      1 ZINC000000899824   -0.3100
22     C22   -16.4071    3.4997    0.1071 C.3      1 ZINC000000899824    0.0200
23     C23   -14.4607    1.6291    0.1072 C.ar     1 ZINC000000899824   -0.1700
24     C24    -3.6513   -1.9581    0.0265 C.ar     1 ZINC000000899824   -0.1200
25     C25    -2.4809   -2.6842    0.0171 C.ar     1 ZINC000000899824   -0.1100
26     C26    -1.2549   -2.0321    0.0031 C.ar     1 ZINC000000899824    0.0900
27     O27    -0.1046   -2.7537   -0.0066 O.3      1 ZINC000000899824   -0.4800
28     H28     1.0053    1.8021    0.0021 H        1 ZINC000000899824    0.1000
29     H29    -0.5445    1.7859   -0.8732 H        1 ZINC000000899824    0.0600
30     H30    -0.5275    1.7763    0.9067 H        1 ZINC000000899824    0.0600
31     H31    -2.3279    1.1774    0.0208 H        1 ZINC000000899824    0.1400
32     H32    -4.8147    1.2977    0.0380 H        1 ZINC000000899824    0.1400
33     H33    -6.0846   -1.4985    0.0448 H        1 ZINC000000899824    0.1400
34     H34    -8.6577   -1.0064   -0.8264 H        1 ZINC000000899824    0.1300
35     H35    -8.6450   -1.0078    0.9535 H        1 ZINC000000899824    0.1300
36     H36   -11.2596   -0.8434    0.0823 H        1 ZINC000000899824    0.1400
37     H37   -11.7926    2.1811    0.0886 H        1 ZINC000000899824    0.1400
38     H38   -12.9357   -1.4130    0.1035 H        1 ZINC000000899824    0.1400
39     H39   -15.2792   -2.1478    0.1204 H        1 ZINC000000899824    0.1400
40     H40   -17.7329   -0.6846    1.0143 H        1 ZINC000000899824    0.3900
41     H41   -17.3034    4.1199    0.1107 H        1 ZINC000000899824    0.1000
42     H42   -15.8102    3.7188    0.9925 H        1 ZINC000000899824    0.0600
43     H43   -15.8217    3.7123   -0.7874 H        1 ZINC000000899824    0.0600
44     H44   -14.2309    2.6844    0.1022 H        1 ZINC000000899824    0.1400
45     H45    -4.6033   -2.4679    0.0333 H        1 ZINC000000899824    0.1400
46     H46    -2.5168   -3.7636    0.0165 H        1 ZINC000000899824    0.1400
47     H47     0.2197   -2.9650   -0.8927 H        1 ZINC000000899824    0.3900
@<TRIPOS>BOND
1     1     2     1
2     1     28    1
3     1     29    1
4     1     30    1
5     2     3     1
6     3     26    ar
7     3     4     ar
8     4     5     ar
9     4     31    1
10    5     6     1
11    5     24    ar
12    6     7     2
13    6     32    1
14    7     8     1
15    7     33    1
16    8     9     2
17    8     10    1
18    10    11    1
19    10    34    1
20    10    35    1
21    11    12    2
22    11    13    1
23    13    14    2
24    13    36    1
25    14    15    1
26    14    37    1
27    15    23    ar
28    15    16    ar
29    16    17    ar
30    16    38    1
31    17    18    ar
32    17    39    1
33    18    19    1
34    18    20    ar
35    19    40    1
36    20    21    1
37    20    23    ar
38    21    22    1
39    22    41    1
40    22    42    1
41    22    43    1
42    23    44    1
43    24    25    ar
44    24    45    1
45    25    26    ar
46    25    46    1
47    26    27    1
48    27    47    1
@<TRIPOS>SUBSTRUCTURE
1   ZINC000000899824 1     RESIDUE    1   A     ZIN   1


@<TRIPOS>MOLECULE
C1CCN(CC1)C(=O)/C=C/C=C/C2=CC3=C(C=C2)OCO3
  40   42    0    0    0
SMALL
USER_CHARGES
NO_NAME
@<TRIPOS>ATOM
    1 O1        0.0228    -0.0036    -0.0031 O.2    1 <0>      -0.5500
    2 C2       -0.0144     1.2136     0.0087 C.2    1 <0>       0.5500
    3 C3        1.1892     1.9585     0.0070 C.2    1 <0>      -0.2300
    4 C4        2.3838     1.3188     0.0941 C.2    1 <0>      -0.0100
    5 C5        3.5831     2.0611     0.0924 C.2    1 <0>      -0.1400
    6 C6        4.7742     1.4231     0.1793 C.2    1 <0>      -0.0600
    7 C7        6.0232     2.1962     0.1775 C.ar   1 <0>      -0.0600
    8 C8        5.9847     3.5928     0.0920 C.ar   1 <0>      -0.0900
    9 C9        7.1578     4.3149     0.0911 C.ar   1 <0>      -0.1000
   10 C10       8.3809     3.6627     0.1742 C.ar   1 <0>       0.0400
   11 O11       9.6580     4.1418     0.1910 O.3    1 <0>      -0.3100
   12 C12      10.4670     3.0649     0.6995 C.3    1 <0>       0.2100
   13 O13       9.7346     1.8816     0.3303 O.3    1 <0>      -0.3100
   14 C14       8.4275     2.2697     0.2598 C.ar   1 <0>       0.0300
   15 C15       7.2565     1.5388     0.2672 C.ar   1 <0>      -0.0800
   16 N16      -1.2017     1.8514     0.0178 N.am   1 <0>      -0.6100
   17 C17      -1.2659     3.3153    -0.0903 C.3    1 <0>       0.1000
   18 C18      -2.2026     3.6837    -1.2451 C.3    1 <0>      -0.1400
   19 C19      -3.5595     3.0092    -1.0311 C.3    1 <0>      -0.1200
   20 C20      -3.3797     1.4894    -1.0212 C.3    1 <0>      -0.1400
   21 C21      -2.4566     1.0956     0.1300 C.3    1 <0>       0.1100
   22 H22       1.1575     3.0358    -0.0635 H      1 <0>       0.1300
   23 H23       2.4155     0.2415     0.1646 H      1 <0>       0.1300
   24 H24       3.5514     3.1383     0.0219 H      1 <0>       0.1300
   25 H25       4.8060     0.3459     0.2498 H      1 <0>       0.1300
   26 H26       5.0356     4.1041     0.0265 H      1 <0>       0.1400
   27 H27       7.1262     5.3924     0.0251 H      1 <0>       0.1400
   28 H28      11.4500     3.0693     0.2286 H      1 <0>       0.1300
   29 H29      10.5602     3.1349     1.7832 H      1 <0>       0.0900
   30 H30       7.2915     0.4618     0.3393 H      1 <0>       0.1400
   31 H31      -1.6503     3.7339     0.8398 H      1 <0>       0.0700
   32 H32      -0.2696     3.7111    -0.2874 H      1 <0>       0.0900
   33 H33      -2.3347     4.7653    -1.2755 H      1 <0>       0.0800
   34 H34      -1.7713     3.3429    -2.1864 H      1 <0>       0.0700
   35 H35      -3.9790     3.3315    -0.0781 H      1 <0>       0.0700
   36 H36      -4.2358     3.2896    -1.8387 H      1 <0>       0.0700
   37 H37      -4.3497     1.0092    -0.8921 H      1 <0>       0.0800
   38 H38      -2.9373     1.1692    -1.9645 H      1 <0>       0.0700
   39 H39      -2.2469     0.0271     0.0811 H      1 <0>       0.0900
   40 H40      -2.9356     1.3329     1.0800 H      1 <0>       0.0700
@<TRIPOS>BOND
   1    1    2 2
   2    2    3 1
   3    2   16 am
   4    3    4 2
   5    3   22 1
   6    4    5 1
   7    4   23 1
   8    5    6 2
   9    5   24 1
  10    6    7 1
  11    6   25 1
  12    7   15 ar
  13    7    8 ar
  14    8    9 ar
  15    8   26 1
  16    9   10 ar
  17    9   27 1
  18   10   14 ar
  19   10   11 1
  20   11   12 1
  21   12   13 1
  22   12   28 1
  23   12   29 1
  24   13   14 1
  25   14   15 ar
  26   15   30 1
  27   16   21 1
  28   16   17 1
  29   17   18 1
  30   17   31 1
  31   17   32 1
  32   18   19 1
  33   18   33 1
  34   18   34 1
  35   19   20 1
  36   19   35 1
  37   19   36 1
  38   20   21 1
  39   20   37 1
  40   20   38 1
  41   21   39 1
  42   21   40 1


@<TRIPOS>MOLECULE
C1=CC(=C(C=C1C2=C(C(=O)C3=C(C=C(C=C3O2)O)O)O)O)O
  31   33    0    0    0
SMALL
USER_CHARGES
NO_NAME
@<TRIPOS>ATOM
    1 O1       -0.9038     1.1636    -0.0631 O.2    1 <0>      -0.5400
    2 C2       -0.5695     2.3377    -0.0199 C.2    1 <0>       0.4200
    3 C3       -1.5293     3.3587     0.0376 C.2    1 <0>      -0.4900
    4 C4       -1.1408     4.6800     0.0810 C.2    1 <0>       0.3200
    5 O5       -2.0957     5.6392     0.1448 O.3    1 <0>      -0.6800
    6 C6        0.2045     5.0679     0.0621 C.2    1 <0>      -0.1500
    7 C7        1.2046     4.1451     0.0031 C.2    1 <0>       0.1000
    8 O8        2.4995     4.5373    -0.0408 O.3    1 <0>      -0.2900
    9 C9        3.4781     3.6588     0.5261 C.3    1 <0>       0.1100
   10 C10       3.3163     3.6169     2.0238 C.ar   1 <0>      -0.1200
   11 C11       4.2964     3.0373     2.8072 C.ar   1 <0>      -0.1000
   12 C12       4.1524     2.9959     4.1819 C.ar   1 <0>      -0.1300
   13 C13       3.0242     3.5366     4.7767 C.ar   1 <0>       0.0900
   14 O14       2.8813     3.4971     6.1286 O.3    1 <0>      -0.4900
   15 C15       2.0374     4.1207     3.9878 C.ar   1 <0>       0.0900
   16 O16       0.9282     4.6533     4.5671 O.3    1 <0>      -0.4800
   17 C17       2.1903     4.1635     2.6116 C.ar   1 <0>      -0.1100
   18 C18       3.2635     2.2729    -0.0502 C.2    1 <0>       0.3500
   19 O19       4.1810     1.6140    -0.4787 O.2    1 <0>      -0.4200
   20 C20       1.8587     1.7638    -0.0605 C.2    1 <0>       0.0800
   21 O21       1.5820     0.4464    -0.1010 O.3    1 <0>      -0.4100
   22 C22       0.8543     2.7208    -0.0203 C.2    1 <0>      -0.1600
   23 H23      -2.5797     3.1077     0.0475 H      1 <0>       0.1100
   24 H24       0.4538     6.1183     0.0946 H      1 <0>       0.1300
   25 H25       4.4783     4.0113     0.2743 H      1 <0>       0.1600
   26 H26       5.1764     2.6154     2.3447 H      1 <0>       0.1300
   27 H27       4.9194     2.5418     4.7918 H      1 <0>       0.1400
   28 H28       3.2488     4.2661     6.5855 H      1 <0>       0.3900
   29 H29       1.0165     5.5875     4.8006 H      1 <0>       0.3900
   30 H30       1.4261     4.6161     1.9972 H      1 <0>       0.1600
   31 H31       2.3350    -0.1599    -0.1234 H      1 <0>       0.4000
@<TRIPOS>BOND
   1    1    2 2
   2    2   22 1
   3    2    3 1
   4    3    4 2
   5    3   23 1
   6    4    5 1
   7    4    6 1
   8    6    7 2
   9    6   24 1
  10    7   22 1
  11    7    8 1
  12    8    9 1
  13    9   10 1
  14    9   18 1
  15    9   25 1
  16   10   17 ar
  17   10   11 ar
  18   11   12 ar
  19   11   26 1
  20   12   13 ar
  21   12   27 1
  22   13   14 1
  23   13   15 ar
  24   14   28 1
  25   15   16 1
  26   15   17 ar
  27   16   29 1
  28   17   30 1
  29   18   19 2
  30   18   20 1
  31   20   21 1
  32   20   22 2
  33   21   31 1


@<TRIPOS>MOLECULE
C1C(C(OC2=CC(=CC(=C21)O)O)C3=CC(=C(C=C3)O)O)O
  35   37    0    0    0
SMALL
USER_CHARGES
NO_NAME
@<TRIPOS>ATOM
    1 O1       -0.0164     1.3547     0.0095 O.3    1 <0>      -0.4900
    2 C2        0.0021    -0.0041     0.0020 C.ar   1 <0>       0.1600
    3 C3        0.0058    -0.6918    -1.2020 C.ar   1 <0>      -0.2000
    4 C4        0.0269    -2.0771    -1.2051 C.ar   1 <0>       0.1600
    5 O5        0.0309    -2.7511    -2.3852 O.3    1 <0>      -0.4900
    6 C6        0.0446    -2.7805    -0.0063 C.ar   1 <0>      -0.1900
    7 C7        0.0785    -4.2873    -0.0509 C.3    1 <0>      -0.1000
    8 C8       -0.3431    -4.8530     1.3074 C.3    1 <0>       0.0800
    9 H9       -0.1164    -5.9184     1.3480 H      1 <0>       0.0800
   10 O10      -1.7447    -4.6513     1.4991 O.3    1 <0>      -0.5500
   11 C11       0.4406    -4.1155     2.4006 C.3    1 <0>       0.1500
   12 H12       1.5095    -4.1919     2.2011 H      1 <0>       0.1000
   13 C13       0.1306    -4.7226     3.7447 C.ar   1 <0>      -0.0800
   14 C14      -1.0389    -4.3863     4.3999 C.ar   1 <0>      -0.0600
   15 C15      -1.3278    -4.9403     5.6336 C.ar   1 <0>      -0.1400
   16 C16      -0.4442    -5.8347     6.2151 C.ar   1 <0>       0.0900
   17 O17      -0.7270    -6.3808     7.4281 O.3    1 <0>      -0.4900
   18 C18       0.7334    -6.1737     5.5550 C.ar   1 <0>       0.0800
   19 O19       1.6037    -7.0517     6.1217 O.3    1 <0>      -0.4900
   20 C20       1.0142    -5.6191     4.3171 C.ar   1 <0>      -0.1200
   21 O21       0.0461    -2.7430     2.3894 O.3    1 <0>      -0.2900
   22 C22       0.0364    -2.0947     1.1955 C.ar   1 <0>       0.1800
   23 C23       0.0229    -0.7042     1.1973 C.ar   1 <0>      -0.1800
   24 H24       0.8616     1.7600     0.0033 H      1 <0>       0.4000
   25 H25      -0.0082    -0.1487    -2.1354 H      1 <0>       0.1400
   26 H26       0.9153    -2.9326    -2.7315 H      1 <0>       0.3900
   27 H27      -0.6067    -4.6429    -0.8204 H      1 <0>       0.0900
   28 H28       1.0897    -4.6205    -0.2846 H      1 <0>       0.0900
   29 H29      -2.2985    -5.0773     0.8306 H      1 <0>       0.3800
   30 H30      -1.7286    -3.6891     3.9475 H      1 <0>       0.1400
   31 H31      -2.2420    -4.6753     6.1438 H      1 <0>       0.1400
   32 H32      -1.2246    -7.2085     7.3804 H      1 <0>       0.3900
   33 H33       1.4393    -7.9753     5.8870 H      1 <0>       0.3900
   34 H34       1.9272    -5.8805     3.8028 H      1 <0>       0.1400
   35 H35       0.0241    -0.1677     2.1346 H      1 <0>       0.1400
@<TRIPOS>BOND
   1    1    2 1
   2    1   24 1
   3    2   23 ar
   4    2    3 ar
   5    3    4 ar
   6    3   25 1
   7    4    5 1
   8    4    6 ar
   9    5   26 1
  10    6   22 ar
  11    6    7 1
  12    7    8 1
  13    7   27 1
  14    7   28 1
  15    8    9 1
  16    8   10 1
  17    8   11 1
  18   10   29 1
  19   11   12 1
  20   11   13 1
  21   11   21 1
  22   13   20 ar
  23   13   14 ar
  24   14   15 ar
  25   14   30 1
  26   15   16 ar
  27   15   31 1
  28   16   17 1
  29   16   18 ar
  30   17   32 1
  31   18   19 1
  32   18   20 ar
  33   19   33 1
  34   20   34 1
  35   21   22 1
  36   22   23 ar
  37   23   35 1


@<TRIPOS>MOLECULE
COC1=CC=CC(=C1N)C2=CC(=O)C3=CC=CC=C3O2
33    35    1     0     0
SMALL
USER_CHARGES
@<TRIPOS>ATOM
1      C1     -0.2646    1.4578    0.2293 C.3      1 ZINC000001420826    0.0300
2      O2     -0.2497    0.0293    0.1969 O.3      1 ZINC000001420826   -0.3200
3      C3      0.4990   -0.6020    1.1409 C.ar     1 ZINC000001420826    0.0500
4      C4      1.1973    0.1378    2.0789 C.ar     1 ZINC000001420826   -0.1400
5      C5      1.9626   -0.4976    3.0442 C.ar     1 ZINC000001420826   -0.1400
6      C6      2.0367   -1.8723    3.0809 C.ar     1 ZINC000001420826   -0.0600
7      C7      1.3372   -2.6359    2.1405 C.ar     1 ZINC000001420826   -0.1300
8      C8      1.4137   -4.1069    2.1761 C.2      1 ZINC000001420826    0.2200
9      C9      1.0596   -4.7538    3.3217 C.2      1 ZINC000001420826   -0.3100
10     C10     1.1262   -6.1637    3.3739 C.2      1 ZINC000001420826    0.4200
11     O11     0.8166   -6.7762    4.3827 O.2      1 ZINC000001420826   -0.4700
12     C12     1.5849   -6.8673    2.1591 C.ar     1 ZINC000001420826   -0.2200
13     C13     1.6811   -8.2567    2.1198 C.ar     1 ZINC000001420826   -0.0300
14     C14     2.1132   -8.8762    0.9668 C.ar     1 ZINC000001420826   -0.1500
15     C15     2.4503   -8.1229   -0.1476 C.ar     1 ZINC000001420826   -0.0600
16     C16     2.3591   -6.7470   -0.1206 C.ar     1 ZINC000001420826   -0.1400
17     C17     1.9258   -6.1035    1.0317 C.ar     1 ZINC000001420826    0.1400
18     O18     1.8243   -4.7586    1.0769 O.3      1 ZINC000001420826   -0.2200
19     C19     0.5583   -1.9938    1.1672 C.ar     1 ZINC000001420826    0.2400
20     N20    -0.1429   -2.7425    0.2252 N.pl3    1 ZINC000001420826   -0.8600
21     H21     0.7497    1.8348    0.0989 H        1 ZINC000001420826    0.0600
22     H22    -0.8978    1.8329   -0.5748 H        1 ZINC000001420826    0.1000
23     H23    -0.6572    1.7954    1.1885 H        1 ZINC000001420826    0.0600
24     H24     1.1461    1.2164    2.0585 H        1 ZINC000001420826    0.1300
25     H25     2.5042    0.0888    3.7717 H        1 ZINC000001420826    0.1300
26     H26     2.6351   -2.3609    3.8356 H        1 ZINC000001420826    0.1300
27     H27     0.7307   -4.1925    4.1838 H        1 ZINC000001420826    0.1600
28     H28     1.4192   -8.8444    2.9872 H        1 ZINC000001420826    0.1400
29     H29     2.1899   -9.9529    0.9313 H        1 ZINC000001420826    0.1400
30     H30     2.7880   -8.6186   -1.0456 H        1 ZINC000001420826    0.1400
31     H31     2.6239   -6.1704   -0.9946 H        1 ZINC000001420826    0.1400
32     H32    -0.1669   -3.7097    0.2949 H        1 ZINC000001420826    0.4000
33     H33    -0.6072   -2.2969   -0.5005 H        1 ZINC000001420826    0.4100
@<TRIPOS>BOND
1     1     2     1
2     1     21    1
3     1     22    1
4     1     23    1
5     2     3     1
6     3     19    ar
7     3     4     ar
8     4     5     ar
9     4     24    1
10    5     6     ar
11    5     25    1
12    6     7     ar
13    6     26    1
14    7     8     1
15    7     19    ar
16    8     18    1
17    8     9     2
18    9     10    1
19    9     27    1
20    10    11    2
21    10    12    1
22    12    17    ar
23    12    13    ar
24    13    14    ar
25    13    28    1
26    14    15    ar
27    14    29    1
28    15    16    ar
29    15    30    1
30    16    17    ar
31    16    31    1
32    17    18    1
33    19    20    1
34    20    32    1
35    20    33    1
@<TRIPOS>SUBSTRUCTURE
1   ZINC000001420826 1     RESIDUE    1   A     ZIN   1


@<TRIPOS>MOLECULE
CC(C)(C)C1=CN=C(O1)CSC2=CN=C(S2)NC(=O)C3CCNCC3
  50   52    0    0    0
SMALL
USER_CHARGES
NO_NAME
@<TRIPOS>ATOM
    1 C1       -0.0187     1.5258     0.0104 C.3    1 <0>      -0.1400
    2 C2        0.0021    -0.0041     0.0020 C.3    1 <0>       0.0200
    3 C3        0.7421    -0.5109     1.2415 C.3    1 <0>      -0.1400
    4 C4       -1.4333    -0.5336     0.0129 C.3    1 <0>      -0.1500
    5 C5        0.7074    -0.4901    -1.2379 C.2    1 <0>      -0.0100
    6 C6        1.9790    -0.2319    -1.5855 C.2    1 <0>      -0.0400
    7 N7        2.2153    -0.8490    -2.7568 N.2    1 <0>      -0.4500
    8 C8        1.1320    -1.4698    -3.1277 C.2    1 <0>       0.1800
    9 C9        0.9742    -2.2844    -4.3857 C.3    1 <0>      -0.0300
   10 S10       1.4250    -4.0091    -4.0499 S.3    1 <0>       0.0300
   11 C11       1.1821    -4.7931    -5.6090 C.2    1 <0>      -0.2400
   12 C12       1.3800    -6.0917    -5.8751 C.2    1 <0>       0.0900
   13 N13       1.1336    -6.4631    -7.1186 N.2    1 <0>      -0.4500
   14 C14       0.7315    -5.5440    -7.9400 C.2    1 <0>       0.2800
   15 N15       0.4232    -5.7421    -9.2830 N.am   1 <0>      -0.6300
   16 C16       0.5350    -6.9706    -9.8260 C.2    1 <0>       0.5100
   17 O17       0.9041    -7.9036    -9.1444 O.2    1 <0>      -0.4500
   18 C18       0.2013    -7.1850   -11.2798 C.3    1 <0>      -0.1200
   19 C19       1.1196    -6.3209   -12.1489 C.3    1 <0>      -0.1500
   20 C20       0.8296    -6.6028   -13.6247 C.3    1 <0>       0.0000
   21 N21       1.0733    -8.0212   -13.9128 N.4    1 <0>      -0.5100
   22 H22       0.9330    -8.1924   -14.8972 H      1 <0>       0.4400
   23 H23       2.0226    -8.2557   -13.6636 H      1 <0>       0.4300
   24 C24       0.1469    -8.8536   -13.1360 C.3    1 <0>      -0.0100
   25 C25       0.4105    -8.6584   -11.6414 C.3    1 <0>      -0.1300
   26 S26       0.6295    -4.0067    -7.0863 S.3    1 <0>       0.1000
   27 O27       0.1830    -1.2702    -2.2034 O.3    1 <0>      -0.1900
   28 H28       1.0039     1.9031     0.0027 H      1 <0>       0.0600
   29 H29      -0.5459     1.8868    -0.8726 H      1 <0>       0.0600
   30 H30      -0.5289     1.8773     0.9072 H      1 <0>       0.0800
   31 H31       0.2319    -0.1594     2.1383 H      1 <0>       0.0800
   32 H32       0.7568    -1.6008     1.2356 H      1 <0>       0.0600
   33 H33       1.7647    -0.1336     1.2338 H      1 <0>       0.0600
   34 H34      -1.9605    -0.1726    -0.8702 H      1 <0>       0.0600
   35 H35      -1.4185    -1.6235     0.0069 H      1 <0>       0.0600
   36 H36      -1.9435    -0.1821     0.9097 H      1 <0>       0.0700
   37 H37       2.6845     0.3639    -1.0254 H      1 <0>       0.1900
   38 H38      -0.0619    -2.2383    -4.7209 H      1 <0>       0.1200
   39 H39       1.6255    -1.8832    -5.1623 H      1 <0>       0.1300
   40 H40       1.7189    -6.7883    -5.1226 H      1 <0>       0.1900
   41 H41       0.1280    -4.9960    -9.8280 H      1 <0>       0.4200
   42 H42      -0.8379    -6.9097   -11.4597 H      1 <0>       0.1200
   43 H43       0.9363    -5.2676   -11.9366 H      1 <0>       0.1200
   44 H44       2.1599    -6.5614   -11.9300 H      1 <0>       0.1000
   45 H45      -0.2108    -6.3618   -13.8426 H      1 <0>       0.1400
   46 H46       1.4816    -5.9890   -14.2462 H      1 <0>       0.1400
   47 H47      -0.8790    -8.5646   -13.3643 H      1 <0>       0.1300
   48 H48       0.2948    -9.9015   -13.3967 H      1 <0>       0.1400
   49 H49       1.4362    -8.9473   -11.4119 H      1 <0>       0.1000
   50 H50      -0.2795    -9.2758   -11.0663 H      1 <0>       0.1200
@<TRIPOS>BOND
   1    1    2 1
   2    1   28 1
   3    1   29 1
   4    1   30 1
   5    2    3 1
   6    2    4 1
   7    2    5 1
   8    3   31 1
   9    3   32 1
  10    3   33 1
  11    4   34 1
  12    4   35 1
  13    4   36 1
  14    5   27 1
  15    5    6 2
  16    6    7 1
  17    6   37 1
  18    7    8 2
  19    8    9 1
  20    8   27 1
  21    9   10 1
  22    9   38 1
  23    9   39 1
  24   10   11 1
  25   11   26 1
  26   11   12 2
  27   12   13 1
  28   12   40 1
  29   13   14 2
  30   14   15 1
  31   14   26 1
  32   15   16 am
  33   15   41 1
  34   16   17 2
  35   16   18 1
  36   18   25 1
  37   18   19 1
  38   18   42 1
  39   19   20 1
  40   19   43 1
  41   19   44 1
  42   20   21 1
  43   20   45 1
  44   20   46 1
  45   21   22 1
  46   21   23 1
  47   21   24 1
  48   24   25 1
  49   24   47 1
  50   24   48 1
  51   25   49 1
  52   25   50 1


@<TRIPOS>MOLECULE
CCC(CO)NC1=NC(=C2C(=N1)N(C=N2)C(C)C)NCC3=CC=CC=C3
52    54    1     0     0
SMALL
USER_CHARGES
@<TRIPOS>ATOM
1      C1     -0.0187    1.5258    0.0104 C.3      1 ZINC000000602192   -0.1500
2      C2      0.0021   -0.0041    0.0020 C.3      1 ZINC000000602192   -0.1300
3      C3      0.7182   -0.4975   -1.2568 C.3      1 ZINC000000602192    0.1700
4      H4      1.7103   -0.0491   -1.3098 H        1 ZINC000000602192    0.1000
5      C5      0.8493   -2.0210   -1.2049 C.3      1 ZINC000000602192    0.0600
6      O6     -0.4420   -2.6041   -1.0184 O.3      1 ZINC000000602192   -0.5700
7      N7     -0.0549   -0.1139   -2.4405 N.pl3    1 ZINC000000602192   -0.6800
8      C8      0.5781    0.0318   -3.6639 C.ar     1 ZINC000000602192    0.6300
9      N9      1.8847   -0.1868   -3.7392 N.ar     1 ZINC000000602192   -0.6300
10     C10     2.5369   -0.0601   -4.8895 C.ar     1 ZINC000000602192    0.5400
11     N11     3.8995   -0.2906   -4.9584 N.pl3    1 ZINC000000602192   -0.6900
12     C12     4.6385   -0.6790   -3.7545 C.3      1 ZINC000000602192    0.1700
13     C13     6.0937   -0.8680   -4.0975 C.ar     1 ZINC000000602192   -0.1100
14     C14     6.5525   -2.1067   -4.5050 C.ar     1 ZINC000000602192   -0.1000
15     C15     7.8874   -2.2801   -4.8196 C.ar     1 ZINC000000602192   -0.1200
16     C16     8.7633   -1.2147   -4.7272 C.ar     1 ZINC000000602192   -0.1100
17     C17     8.3043    0.0242   -4.3206 C.ar     1 ZINC000000602192   -0.1200
18     C18     6.9686    0.1986   -4.0101 C.ar     1 ZINC000000602192   -0.1000
19     C19     1.8131    0.3127   -6.0351 C.ar     1 ZINC000000602192   -0.1600
20     N20     2.1344    0.5309   -7.3342 N.2      1 ZINC000000602192   -0.4500
21     C21     1.0643    0.8633   -7.9950 C.2      1 ZINC000000602192    0.2300
22     N22    -0.0135    0.8793   -7.1584 N.pl3    1 ZINC000000602192   -0.4700
23     C23    -1.3930    1.2055   -7.5281 C.3      1 ZINC000000602192    0.1300
24     C24    -1.4491    2.6303   -8.0827 C.3      1 ZINC000000602192   -0.1600
25     C25    -1.8810    0.2234   -8.5949 C.3      1 ZINC000000602192   -0.1600
26     C26     0.4318    0.5337   -5.9076 C.ar     1 ZINC000000602192    0.3500
27     N27    -0.1418    0.3790   -4.7185 N.ar     1 ZINC000000602192   -0.6200
28     H28     1.0039    1.9031    0.0027 H        1 ZINC000000602192    0.0500
29     H29    -0.5459    1.8868   -0.8726 H        1 ZINC000000602192    0.0600
30     H30    -0.5289    1.8773    0.9072 H        1 ZINC000000602192    0.0600
31     H31     0.5293   -0.3651    0.8851 H        1 ZINC000000602192    0.0800
32     H32    -1.0205   -0.3814    0.0098 H        1 ZINC000000602192    0.0800
33     H33     1.2788   -2.3807   -2.1399 H        1 ZINC000000602192    0.0500
34     H34     1.4980   -2.3018   -0.3753 H        1 ZINC000000602192    0.0500
35     H35    -0.4349   -3.5701   -0.9761 H        1 ZINC000000602192    0.3800
36     H36    -1.0102    0.0381   -2.3676 H        1 ZINC000000602192    0.4100
37     H37     4.3654   -0.1951   -5.8038 H        1 ZINC000000602192    0.4200
38     H38     4.5414    0.1023   -3.0007 H        1 ZINC000000602192    0.0800
39     H39     4.2328   -1.6126   -3.3646 H        1 ZINC000000602192    0.0800
40     H40     5.8681   -2.9391   -4.5772 H        1 ZINC000000602192    0.1200
41     H41     8.2460   -3.2481   -5.1372 H        1 ZINC000000602192    0.1200
42     H42     9.8063   -1.3504   -4.9723 H        1 ZINC000000602192    0.1200
43     H43     8.9887    0.8565   -4.2480 H        1 ZINC000000602192    0.1200
44     H44     6.6100    1.1665   -3.6924 H        1 ZINC000000602192    0.1200
45     H45     1.0336    1.0929   -9.0498 H        1 ZINC000000602192    0.2100
46     H46    -2.0319    1.1329   -6.6479 H        1 ZINC000000602192    0.1100
47     H47    -0.8102    2.7029   -8.9629 H        1 ZINC000000602192    0.0700
48     H48    -2.4755    2.8731   -8.3578 H        1 ZINC000000602192    0.0800
49     H49    -1.1014    3.3300   -7.3227 H        1 ZINC000000602192    0.0600
50     H50    -1.8411   -0.7917   -8.1997 H        1 ZINC000000602192    0.0600
51     H51    -2.9075    0.4661   -8.8699 H        1 ZINC000000602192    0.0800
52     H52    -1.2422    0.2960   -9.4750 H        1 ZINC000000602192    0.0700
@<TRIPOS>BOND
1     1     2     1
2     1     28    1
3     1     29    1
4     1     30    1
5     2     3     1
6     2     31    1
7     2     32    1
8     3     4     1
9     3     5     1
10    3     7     1
11    5     6     1
12    5     33    1
13    5     34    1
14    6     35    1
15    7     8     1
16    7     36    1
17    8     27    ar
18    8     9     ar
19    9     10    ar
20    10    11    1
21    10    19    ar
22    11    12    1
23    11    37    1
24    12    13    1
25    12    38    1
26    12    39    1
27    13    18    ar
28    13    14    ar
29    14    15    ar
30    14    40    1
31    15    16    ar
32    15    41    1
33    16    17    ar
34    16    42    1
35    17    18    ar
36    17    43    1
37    18    44    1
38    19    26    ar
39    19    20    1
40    20    21    2
41    21    22    1
42    21    45    1
43    22    23    1
44    22    26    1
45    23    24    1
46    23    25    1
47    23    46    1
48    24    47    1
49    24    48    1
50    24    49    1
51    25    50    1
52    25    51    1
53    25    52    1
54    26    27    ar
@<TRIPOS>SUBSTRUCTURE
1   ZINC000000602192 1     RESIDUE    1   A     ZIN   1


@<TRIPOS>MOLECULE
C1CNCCC1NC(=O)C2=C(C=NN2)NC(=O)C3=C(C=CC=C3Cl)Cl
43    45    1     0     0
SMALL
USER_CHARGES
@<TRIPOS>ATOM
1      O1      0.0021   -0.0041    0.0020 O.2      1 ZINC000016052857   -0.5300
2      C2     -0.0144    1.2117    0.0087 C.2      1 ZINC000016052857    0.6200
3      N3      1.1435    1.9014    0.0014 N.am     1 ZINC000016052857   -0.7200
4      C4      2.4220    1.1863   -0.0147 C.3      1 ZINC000016052857    0.1400
5      C5      2.7986    0.8429   -1.4588 C.3      1 ZINC000016052857   -0.1600
6      C6      4.1714    0.1673   -1.4753 C.3      1 ZINC000016052857    0.0000
7      N7      5.1751    1.0766   -0.9093 N.4      1 ZINC000016052857   -0.5100
8      H8      6.0871    0.6494   -0.9706 H        1 ZINC000016052857    0.4300
9      H9      5.1745    1.9418   -1.4285 H        1 ZINC000016052857    0.4300
10     C10     4.8596    1.3533    0.4973 C.3      1 ZINC000016052857    0.0000
11     C11     3.5133    2.0746    0.5896 C.3      1 ZINC000016052857   -0.1600
12     C12    -1.3017    1.9318    0.0187 C.2      1 ZINC000016052857   -0.0500
13     N13    -1.4682    3.2403    0.0208 N.2      1 ZINC000016052857   -0.2400
14     N14    -2.7196    3.5295    0.0295 N.pl3    1 ZINC000016052857   -0.3600
15     C15    -3.4637    2.3937    0.0337 C.2      1 ZINC000016052857   -0.0200
16     C16    -2.5949    1.3478    0.0217 C.2      1 ZINC000016052857    0.0900
17     N17    -2.9102   -0.0191    0.0201 N.am     1 ZINC000016052857   -0.6200
18     C18    -4.1990   -0.4134    0.0319 C.2      1 ZINC000016052857    0.5700
19     O19    -5.0883    0.4157    0.0438 O.2      1 ZINC000016052857   -0.5000
20     C20    -4.5309   -1.8523    0.0302 C.ar     1 ZINC000016052857   -0.1200
21     C21    -4.6821   -2.5395    1.2376 C.ar     1 ZINC000016052857    0.0000
22     Cl22   -4.4808   -1.7038    2.7458 Cl       1 ZINC000016052857   -0.0400
23     C23    -4.9925   -3.8851    1.2279 C.ar     1 ZINC000016052857   -0.1000
24     C24    -5.1533   -4.5528    0.0271 C.ar     1 ZINC000016052857   -0.0700
25     C25    -5.0053   -3.8794   -1.1721 C.ar     1 ZINC000016052857   -0.1000
26     C26    -4.7011   -2.5324   -1.1788 C.ar     1 ZINC000016052857    0.0000
27     Cl27   -4.5163   -1.6893   -2.6850 Cl       1 ZINC000016052857   -0.0400
28     H28     1.1303    2.8713    0.0067 H        1 ZINC000016052857    0.4100
29     H29     2.3341    0.2694    0.5681 H        1 ZINC000016052857    0.1100
30     H30     2.0545    0.1655   -1.8778 H        1 ZINC000016052857    0.1200
31     H31     2.8353    1.7564   -2.0524 H        1 ZINC000016052857    0.0900
32     H32     4.1335   -0.7461   -0.8817 H        1 ZINC000016052857    0.1300
33     H33     4.4426   -0.0787   -2.5020 H        1 ZINC000016052857    0.1400
34     H34     4.8070    0.4146    1.0488 H        1 ZINC000016052857    0.1400
35     H35     5.6388    1.9830    0.9269 H        1 ZINC000016052857    0.1400
36     H36     3.5648    3.0136    0.0386 H        1 ZINC000016052857    0.1000
37     H37     3.2800    2.2775    1.6349 H        1 ZINC000016052857    0.1200
38     H38    -3.0811    4.4297    0.0332 H        1 ZINC000016052857    0.4600
39     H39    -4.5419    2.3326    0.0410 H        1 ZINC000016052857    0.2100
40     H40    -2.2008   -0.6805    0.0106 H        1 ZINC000016052857    0.4300
41     H41    -5.1097   -4.4176    2.1602 H        1 ZINC000016052857    0.1500
42     H42    -5.3954   -5.6053    0.0259 H        1 ZINC000016052857    0.1500
43     H43    -5.1324   -4.4075   -2.1056 H        1 ZINC000016052857    0.1500
@<TRIPOS>BOND
1     1     2     2
2     2     3     am
3     2     12    1
4     3     4     1
5     3     28    1
6     4     11    1
7     4     5     1
8     4     29    1
9     5     6     1
10    5     30    1
11    5     31    1
12    6     7     1
13    6     32    1
14    6     33    1
15    7     8     1
16    7     9     1
17    7     10    1
18    10    11    1
19    10    34    1
20    10    35    1
21    11    36    1
22    11    37    1
23    12    16    1
24    12    13    2
25    13    14    1
26    14    15    1
27    14    38    1
28    15    16    2
29    15    39    1
30    16    17    1
31    17    18    am
32    17    40    1
33    18    19    2
34    18    20    1
35    20    26    ar
36    20    21    ar
37    21    22    1
38    21    23    ar
39    23    24    ar
40    23    41    1
41    24    25    ar
42    24    42    1
43    25    26    ar
44    25    43    1
45    26    27    1
@<TRIPOS>SUBSTRUCTURE
1   ZINC000016052857 1     RESIDUE    1   A     ZIN   1


@<TRIPOS>MOLECULE
CC1(CC2=CN=C(N=C2C3=C1C(=NN3C)C(=O)NC)NC4=CC=C(C=C4)N5CCN(CC5)C)C
67    71    1     0     0
SMALL
USER_CHARGES
@<TRIPOS>ATOM
1      C1      1.0328    1.2816    0.1852 C.3      1 ZINC000053119602    0.0900
2      N2      1.2207   -0.1608    0.0106 N.am     1 ZINC000053119602   -0.7200
3      C3      0.2474   -0.9038   -0.5525 C.2      1 ZINC000053119602    0.6100
4      O4     -0.7864   -0.3772   -0.9155 O.2      1 ZINC000053119602   -0.5200
5      C5      0.4369   -2.3585   -0.7287 C.2      1 ZINC000053119602    0.0000
6      N6      0.3685   -3.2816    0.2191 N.2      1 ZINC000053119602   -0.2400
7      N7      0.5844   -4.4545   -0.2752 N.pl3    1 ZINC000053119602   -0.2500
8      C8      0.5735   -5.7057    0.4869 C.3      1 ZINC000053119602    0.0900
9      C9      0.8208   -4.3543   -1.5975 C.2      1 ZINC000053119602    0.0300
10     C10     0.7156   -3.0191   -1.9253 C.2      1 ZINC000053119602   -0.1100
11     C11     0.8855   -2.5174   -3.3296 C.3      1 ZINC000053119602    0.0100
12     C12    -0.4646   -2.5495   -4.0487 C.3      1 ZINC000053119602   -0.1400
13     C13     1.4110   -1.0809   -3.2970 C.3      1 ZINC000053119602   -0.1500
14     C14     1.8811   -3.4058   -4.0766 C.3      1 ZINC000053119602   -0.0600
15     C15     1.6189   -4.8679   -3.8619 C.ar     1 ZINC000053119602   -0.2000
16     C16     1.8653   -5.7855   -4.8656 C.ar     1 ZINC000053119602    0.1900
17     N17     1.6500   -7.0713   -4.6315 N.ar     1 ZINC000053119602   -0.5600
18     C18     1.2077   -7.4947   -3.4560 C.ar     1 ZINC000053119602    0.5600
19     N19     1.0150   -8.8514   -3.2547 N.pl3    1 ZINC000053119602   -0.6400
20     C20     1.3949   -9.7673   -4.2444 C.ar     1 ZINC000053119602    0.1700
21     C21     2.4975   -9.5051   -5.0467 C.ar     1 ZINC000053119602   -0.0900
22     C22     2.8717  -10.4075   -6.0224 C.ar     1 ZINC000053119602   -0.1000
23     C23     2.1455  -11.5778   -6.2011 C.ar     1 ZINC000053119602    0.0600
24     N24     2.5250  -12.4927   -7.1897 N.3      1 ZINC000053119602   -0.4800
25     C25     2.5729  -11.8508   -8.5110 C.3      1 ZINC000053119602    0.0300
26     C26     3.0482  -12.8672   -9.5516 C.3      1 ZINC000053119602    0.0000
27     N27     2.1261  -14.0102   -9.5766 N.4      1 ZINC000053119602   -0.3900
28     H28     1.1978  -13.6883   -9.8063 H        1 ZINC000053119602    0.4200
29     C29     2.5728  -14.9773  -10.5881 C.3      1 ZINC000053119602   -0.0500
30     C30     2.1077  -14.6557   -8.2573 C.3      1 ZINC000053119602    0.0000
31     C31     1.6246  -13.6542   -7.2060 C.3      1 ZINC000053119602    0.0200
32     C32     1.0431  -11.8402   -5.3984 C.ar     1 ZINC000053119602   -0.1400
33     C33     0.6721  -10.9401   -4.4192 C.ar     1 ZINC000053119602   -0.1200
34     N34     0.9456   -6.6495   -2.4676 N.ar     1 ZINC000053119602   -0.5500
35     C35     1.1199   -5.3502   -2.6408 C.ar     1 ZINC000053119602    0.3000
36     H36     0.8749    1.7478   -0.7873 H        1 ZINC000053119602    0.0700
37     H37     0.1645    1.4607    0.8193 H        1 ZINC000053119602    0.0600
38     H38     1.9192    1.7094    0.6536 H        1 ZINC000053119602    0.0800
39     H39     2.0456   -0.5810    0.3002 H        1 ZINC000053119602    0.4100
40     H40    -0.4341   -6.1215    0.4882 H        1 ZINC000053119602    0.0900
41     H41     1.2595   -6.4171    0.0271 H        1 ZINC000053119602    0.1000
42     H42     0.8869   -5.5094    1.5122 H        1 ZINC000053119602    0.1000
43     H43    -1.1737   -1.9136   -3.5187 H        1 ZINC000053119602    0.0700
44     H44    -0.3418   -2.1852   -5.0686 H        1 ZINC000053119602    0.0700
45     H45    -0.8402   -3.5725   -4.0710 H        1 ZINC000053119602    0.0500
46     H46     2.3142   -1.0381   -2.6883 H        1 ZINC000053119602    0.0600
47     H47     1.6409   -0.7549   -4.3114 H        1 ZINC000053119602    0.0700
48     H48     0.6524   -0.4261   -2.8681 H        1 ZINC000053119602    0.0700
49     H49     1.8167   -3.1887   -5.1428 H        1 ZINC000053119602    0.0900
50     H50     2.8887   -3.1738   -3.7316 H        1 ZINC000053119602    0.0900
51     H51     2.2284   -5.4582   -5.8287 H        1 ZINC000053119602    0.1800
52     H52     0.6170   -9.1674   -2.4285 H        1 ZINC000053119602    0.4300
53     H53     3.0622   -8.5950   -4.9077 H        1 ZINC000053119602    0.1400
54     H54     3.7288  -10.2032   -6.6468 H        1 ZINC000053119602    0.1300
55     H55     1.5782  -11.4946   -8.7785 H        1 ZINC000053119602    0.0700
56     H56     3.2653  -11.0095   -8.4817 H        1 ZINC000053119602    0.1300
57     H57     3.0709  -12.3970  -10.5347 H        1 ZINC000053119602    0.1400
58     H58     4.0486  -13.2130   -9.2912 H        1 ZINC000053119602    0.1400
59     H59     3.5758  -15.3249  -10.3405 H        1 ZINC000053119602    0.1200
60     H60     1.8887  -15.8257  -10.6069 H        1 ZINC000053119602    0.1200
61     H61     2.5855  -14.4991  -11.5675 H        1 ZINC000053119602    0.1200
62     H62     1.4330  -15.5115   -8.2810 H        1 ZINC000053119602    0.1400
63     H63     3.1128  -14.9924   -8.0036 H        1 ZINC000053119602    0.1400
64     H64     1.6250  -14.1285   -6.2246 H        1 ZINC000053119602    0.1300
65     H65     0.6142  -13.3277   -7.4520 H        1 ZINC000053119602    0.0700
66     H66     0.4783  -12.7502   -5.5373 H        1 ZINC000053119602    0.1300
67     H67    -0.1850  -11.1443   -3.7947 H        1 ZINC000053119602    0.1300
@<TRIPOS>BOND
1     1     2     1
2     1     36    1
3     1     37    1
4     1     38    1
5     2     3     am
6     2     39    1
7     3     4     2
8     3     5     1
9     5     10    1
10    5     6     2
11    6     7     1
12    7     8     1
13    7     9     1
14    8     40    1
15    8     41    1
16    8     42    1
17    9     35    1
18    9     10    2
19    10    11    1
20    11    12    1
21    11    13    1
22    11    14    1
23    12    43    1
24    12    44    1
25    12    45    1
26    13    46    1
27    13    47    1
28    13    48    1
29    14    15    1
30    14    49    1
31    14    50    1
32    15    35    ar
33    15    16    ar
34    16    17    ar
35    16    51    1
36    17    18    ar
37    18    19    1
38    18    34    ar
39    19    20    1
40    19    52    1
41    20    33    ar
42    20    21    ar
43    21    22    ar
44    21    53    1
45    22    23    ar
46    22    54    1
47    23    24    1
48    23    32    ar
49    24    31    1
50    24    25    1
51    25    26    1
52    25    55    1
53    25    56    1
54    26    27    1
55    26    57    1
56    26    58    1
57    27    28    1
58    27    29    1
59    27    30    1
60    29    59    1
61    29    60    1
62    29    61    1
63    30    31    1
64    30    62    1
65    30    63    1
66    31    64    1
67    31    65    1
68    32    33    ar
69    32    66    1
70    33    67    1
71    34    35    ar
@<TRIPOS>SUBSTRUCTURE
1   ZINC000053119602 1     RESIDUE    1   A     ZIN   1


@<TRIPOS>MOLECULE
C1=CC(=C(C(=C1)F)C(=O)N2C(=NC(=N2)NC3=CC=C(C=C3)S(=O)(=O)N)N)F
  39   41    0    0    0
SMALL
USER_CHARGES
NO_NAME
@<TRIPOS>ATOM
    1 N1        0.3043     1.2041    -0.2951 N.pl3  1 <0>      -0.7900
    2 C2        0.1983    -0.1698    -0.2306 C.2    1 <0>       0.5900
    3 N3       -0.9185    -0.8574    -0.1342 N.2    1 <0>      -0.5900
    4 C4       -0.6415    -2.1668    -0.0956 C.2    1 <0>       0.5200
    5 N5       -1.5838    -3.1884     0.0039 N.pl3  1 <0>      -0.6200
    6 C6       -2.9405    -2.8778     0.1286 C.ar   1 <0>       0.2300
    7 C7       -3.7863    -3.7237     0.8349 C.ar   1 <0>      -0.1700
    8 C8       -5.1266    -3.4138     0.9561 C.ar   1 <0>       0.0100
    9 C9       -5.6271    -2.2630     0.3750 C.ar   1 <0>      -0.7000
   10 S10      -7.3379    -1.8714     0.5322 S.o2   1 <0>       2.7000
   11 N11      -7.5079    -0.9590     1.9036 N.am   1 <0>      -1.2500
   12 O12      -7.6562    -1.0188    -0.5591 O.2    1 <0>      -0.9600
   13 O13      -8.0093    -3.0988     0.7810 O.2    1 <0>      -0.9600
   14 C14      -4.7880    -1.4187    -0.3288 C.ar   1 <0>       0.0100
   15 C15      -3.4454    -1.7194    -0.4486 C.ar   1 <0>      -0.1500
   16 N16       0.6567    -2.3355    -0.1668 N.2    1 <0>      -0.3500
   17 N17       1.2325    -1.0581    -0.2615 N.am   1 <0>      -0.4000
   18 C18       2.5453    -0.7678    -0.3550 C.2    1 <0>       0.6200
   19 O19       2.9140     0.3903    -0.3419 O.2    1 <0>      -0.4700
   20 C20       3.5338    -1.8545    -0.4730 C.ar   1 <0>      -0.2000
   21 C21       3.8399    -2.3946    -1.7277 C.ar   1 <0>       0.1700
   22 F22       3.2303    -1.9208    -2.8363 F      1 <0>      -0.1200
   23 C23       4.7681    -3.4135    -1.8288 C.ar   1 <0>      -0.1600
   24 C24       5.3935    -3.9000    -0.6951 C.ar   1 <0>      -0.0300
   25 C25       5.0972    -3.3725     0.5487 C.ar   1 <0>      -0.1600
   26 C26       4.1762    -2.3489     0.6682 C.ar   1 <0>       0.1700
   27 F27       3.8886    -1.8348     1.8840 F      1 <0>      -0.1200
   28 H28       1.1773     1.6202    -0.3698 H      1 <0>       0.4300
   29 H29      -0.4945     1.7538    -0.2696 H      1 <0>       0.4300
   30 H30      -1.2980    -4.1152    -0.0133 H      1 <0>       0.4300
   31 H31      -3.3962    -4.6230     1.2883 H      1 <0>       0.1400
   32 H32      -5.7847    -4.0710     1.5050 H      1 <0>       0.1500
   33 H33      -6.7306    -0.7438     2.4424 H      1 <0>       0.4200
   34 H34      -8.3848    -0.6397     2.1681 H      1 <0>       0.4200
   35 H35      -5.1821    -0.5210    -0.7816 H      1 <0>       0.1500
   36 H36      -2.7906    -1.0596    -0.9983 H      1 <0>       0.1600
   37 H37       5.0056    -3.8313    -2.7960 H      1 <0>       0.1500
   38 H38       6.1173    -4.6969    -0.7815 H      1 <0>       0.1500
   39 H39       5.5901    -3.7587     1.4287 H      1 <0>       0.1500
@<TRIPOS>BOND
   1    1    2 1
   2    1   28 1
   3    1   29 1
   4    2   17 1
   5    2    3 2
   6    3    4 1
   7    4    5 1
   8    4   16 2
   9    5    6 1
  10    5   30 1
  11    6   15 ar
  12    6    7 ar
  13    7    8 ar
  14    7   31 1
  15    8    9 ar
  16    8   32 1
  17    9   10 1
  18    9   14 ar
  19   10   11 am
  20   10   12 2
  21   10   13 2
  22   11   33 1
  23   11   34 1
  24   14   15 ar
  25   14   35 1
  26   15   36 1
  27   16   17 1
  28   17   18 am
  29   18   19 2
  30   18   20 1
  31   20   26 ar
  32   20   21 ar
  33   21   22 1
  34   21   23 ar
  35   23   24 ar
  36   23   37 1
  37   24   25 ar
  38   24   38 1
  39   25   26 ar
  40   25   39 1
  41   26   27 1


@<TRIPOS>MOLECULE
C1C2=C(C3=CC=CC=C3NC1=O)NC4=C2C=C(C=C4)Br
  31   34    0    0    0
SMALL
USER_CHARGES
NO_NAME
@<TRIPOS>ATOM
    1 O1        0.0021    -0.0041     0.0020 O.2    1 <0>      -0.5200
    2 C2       -0.0144     1.2087     0.0087 C.2    1 <0>       0.5300
    3 C3       -1.3427     1.9236     0.0315 C.3    1 <0>      -0.0600
    4 C4       -1.4351     2.7563    -1.2233 C.2    1 <0>      -0.1500
    5 C5       -0.5453     3.7168    -1.5810 C.2    1 <0>       0.1300
    6 N6       -0.9129     4.2511    -2.8005 N.pl3  1 <0>      -0.5800
    7 C7       -2.0659     3.6591    -3.2329 C.ar   1 <0>       0.1200
    8 C8       -2.8358     3.8507    -4.3773 C.ar   1 <0>      -0.1200
    9 C9       -3.9713     3.0698    -4.5114 C.ar   1 <0>      -0.0700
   10 C10      -4.3421     2.1331    -3.5597 C.ar   1 <0>      -0.1200
   11 Br11     -5.9120     1.1157    -3.8359 Br     1 <0>      -0.0500
   12 C12      -3.5967     1.9203    -2.4133 C.ar   1 <0>      -0.0300
   13 C13      -2.4443     2.6989    -2.2578 C.ar   1 <0>      -0.0900
   14 C14       0.6163     4.1389    -0.7691 C.ar   1 <0>      -0.0600
   15 C15       0.9702     5.4928    -0.7853 C.ar   1 <0>      -0.0800
   16 C16       2.0215     5.9466    -0.0192 C.ar   1 <0>      -0.1300
   17 C17       2.7290     5.0604     0.7745 C.ar   1 <0>      -0.0800
   18 C18       2.3992     3.7222     0.7876 C.ar   1 <0>      -0.1400
   19 C19       1.3505     3.2382     0.0029 C.ar   1 <0>       0.1800
   20 N20       1.1397     1.8709     0.0012 N.am   1 <0>      -0.6600
   21 H21      -2.1539     1.1959     0.0528 H      1 <0>       0.1200
   22 H22      -1.4004     2.5686     0.9082 H      1 <0>       0.1100
   23 H23      -0.4263     4.9413    -3.2776 H      1 <0>       0.4200
   24 H24      -2.5595     4.5769    -5.1274 H      1 <0>       0.1400
   25 H25      -4.5897     3.1952    -5.3879 H      1 <0>       0.1300
   26 H26      -3.8901     1.1892    -1.6746 H      1 <0>       0.1400
   27 H27       0.4165     6.1854    -1.4019 H      1 <0>       0.1300
   28 H28       2.2933     6.9916    -0.0382 H      1 <0>       0.1300
   29 H29       3.5435     5.4192     1.3863 H      1 <0>       0.1300
   30 H30       2.9579     3.0406     1.4118 H      1 <0>       0.1400
   31 H31       1.9394     1.3221    -0.0122 H      1 <0>       0.4100
@<TRIPOS>BOND
   1    1    2 2
   2    2   20 am
   3    2    3 1
   4    3    4 1
   5    3   21 1
   6    3   22 1
   7    4   13 1
   8    4    5 2
   9    5    6 1
  10    5   14 1
  11    6    7 1
  12    6   23 1
  13    7   13 ar
  14    7    8 ar
  15    8    9 ar
  16    8   24 1
  17    9   10 ar
  18    9   25 1
  19   10   11 1
  20   10   12 ar
  21   12   13 ar
  22   12   26 1
  23   14   19 ar
  24   14   15 ar
  25   15   16 ar
  26   15   27 1
  27   16   17 ar
  28   16   28 1
  29   17   18 ar
  30   17   29 1
  31   18   19 ar
  32   18   30 1
  33   19   20 1
  34   20   31 1


@<TRIPOS>MOLECULE
C1CC(C1)(C2=CC=C(C=C2)C3=C(C=C4C(=N3)C=CN5C4=NNC5=O)C6=CC=CC=C6)N
53    58    1     0     0
SMALL
USER_CHARGES
@<TRIPOS>ATOM
1      N1     -0.0116    1.0048    0.0076 N.4      1 ZINC000036382821   -0.6200
2      H2      0.0021   -0.0041    0.0020 H        1 ZINC000036382821    0.4400
3      H3      0.9350    1.3541    0.0004 H        1 ZINC000036382821    0.4400
4      H4     -0.4996    1.3391   -0.8099 H        1 ZINC000036382821    0.4400
5      C5     -0.6992    1.4786    1.2162 C.3      1 ZINC000036382821    0.0600
6      C6     -1.0020    2.9543    1.1767 C.ar     1 ZINC000036382821   -0.1000
7      C7     -1.2428    3.6399    2.3540 C.ar     1 ZINC000036382821   -0.1000
8      C8     -1.5206    4.9911    2.3243 C.ar     1 ZINC000036382821   -0.0600
9      C9     -1.5585    5.6657    1.1042 C.ar     1 ZINC000036382821   -0.0300
10     C10    -1.8557    7.1164    1.0654 C.ar     1 ZINC000036382821    0.2000
11     N11    -2.7081    7.6293    1.9395 N.ar     1 ZINC000036382821   -0.4500
12     C12    -3.0038    8.9229    1.9420 C.ar     1 ZINC000036382821    0.2100
13     C13    -2.4097    9.7950    1.0017 C.ar     1 ZINC000036382821   -0.0800
14     C14    -1.5088    9.2908    0.0678 C.ar     1 ZINC000036382821    0.0000
15     C15    -1.2227    7.9262    0.1042 C.ar     1 ZINC000036382821   -0.0900
16     C16    -0.2710    7.3339   -0.8651 C.ar     1 ZINC000036382821   -0.0500
17     C17     0.7640    6.5137   -0.4177 C.ar     1 ZINC000036382821   -0.1000
18     C18     1.6472    5.9651   -1.3250 C.ar     1 ZINC000036382821   -0.1200
19     C19     1.5075    6.2278   -2.6760 C.ar     1 ZINC000036382821   -0.1100
20     C20     0.4826    7.0408   -3.1258 C.ar     1 ZINC000036382821   -0.1100
21     C21    -0.4104    7.5901   -2.2286 C.ar     1 ZINC000036382821   -0.1000
22     C22    -2.7669   11.2224    1.0404 C.2      1 ZINC000036382821    0.3100
23     N23    -2.3883   12.2418    0.3160 N.2      1 ZINC000036382821   -0.2500
24     N24    -3.0498   13.3810    0.7937 N.am     1 ZINC000036382821   -0.5300
25     C25    -3.8299   12.9962    1.8232 C.2      1 ZINC000036382821    0.6600
26     O26    -4.5520   13.7204    2.4854 O.2      1 ZINC000036382821   -0.5200
27     N27    -3.6689   11.6656    1.9912 N.am     1 ZINC000036382821   -0.4900
28     C28    -4.2321   10.7931    2.8964 C.2      1 ZINC000036382821    0.1500
29     C29    -3.9496    9.4869    2.9122 C.2      1 ZINC000036382821   -0.1600
30     C30    -1.3149    4.9691   -0.0792 C.ar     1 ZINC000036382821   -0.0700
31     C31    -1.0326    3.6191   -0.0362 C.ar     1 ZINC000036382821   -0.1300
32     C32    -1.9032    0.6113    1.6199 C.3      1 ZINC000036382821   -0.1300
33     C33    -0.9184   -0.2324    2.4464 C.3      1 ZINC000036382821   -0.1600
34     C34    -0.0315    1.0215    2.5239 C.3      1 ZINC000036382821   -0.1300
35     H35    -1.2135    3.1163    3.2981 H        1 ZINC000036382821    0.1400
36     H36    -1.7087    5.5252    3.2439 H        1 ZINC000036382821    0.1500
37     H37    -1.0423    9.9376   -0.6604 H        1 ZINC000036382821    0.1600
38     H38     0.8745    6.3084    0.6369 H        1 ZINC000036382821    0.1200
39     H39     2.4493    5.3296   -0.9796 H        1 ZINC000036382821    0.1200
40     H40     2.2016    5.7968   -3.3823 H        1 ZINC000036382821    0.1300
41     H41     0.3785    7.2424   -4.1817 H        1 ZINC000036382821    0.1300
42     H42    -1.2102    8.2247   -2.5809 H        1 ZINC000036382821    0.1300
43     H43    -2.9623   14.2825    0.4465 H        1 ZINC000036382821    0.4700
44     H44    -4.9318   11.1804    3.6223 H        1 ZINC000036382821    0.1800
45     H45    -4.4181    8.8441    3.6428 H        1 ZINC000036382821    0.1700
46     H46    -1.3432    5.4860   -1.0270 H        1 ZINC000036382821    0.1400
47     H47    -0.8435    3.0786   -0.9519 H        1 ZINC000036382821    0.1200
48     H48    -2.6393    1.1406    2.2249 H        1 ZINC000036382821    0.1300
49     H49    -2.3499    0.0692    0.7864 H        1 ZINC000036382821    0.0900
50     H50    -1.3157   -0.5466    3.4115 H        1 ZINC000036382821    0.1000
51     H51    -0.4681   -1.0517    1.8859 H        1 ZINC000036382821    0.0900
52     H52     1.0328    0.8106    2.4202 H        1 ZINC000036382821    0.1000
53     H53    -0.2559    1.6630    3.3761 H        1 ZINC000036382821    0.1300
@<TRIPOS>BOND
1     1     2     1
2     1     3     1
3     1     4     1
4     1     5     1
5     5     34    1
6     5     6     1
7     5     32    1
8     6     31    ar
9     6     7     ar
10    7     8     ar
11    7     35    1
12    8     9     ar
13    8     36    1
14    9     10    1
15    9     30    ar
16    10    15    ar
17    10    11    ar
18    11    12    ar
19    12    29    1
20    12    13    ar
21    13    14    ar
22    13    22    1
23    14    15    ar
24    14    37    1
25    15    16    1
26    16    21    ar
27    16    17    ar
28    17    18    ar
29    17    38    1
30    18    19    ar
31    18    39    1
32    19    20    ar
33    19    40    1
34    20    21    ar
35    20    41    1
36    21    42    1
37    22    27    1
38    22    23    2
39    23    24    1
40    24    25    am
41    24    43    1
42    25    26    2
43    25    27    am
44    27    28    1
45    28    29    2
46    28    44    1
47    29    45    1
48    30    31    ar
49    30    46    1
50    31    47    1
51    32    33    1
52    32    48    1
53    32    49    1
54    33    34    1
55    33    50    1
56    33    51    1
57    34    52    1
58    34    53    1
@<TRIPOS>SUBSTRUCTURE
1   ZINC000036382821 1     RESIDUE    1   A     ZIN   1


@<TRIPOS>MOLECULE
CN1C(=C(C=N1)Cl)C2=C(OC(=C2)C(=O)NC(CC3=CC(=C(C=C3)F)F)CN)Cl
45    47    1     0     0
SMALL
USER_CHARGES
@<TRIPOS>ATOM
1      C1     -0.0178    1.4608    0.0101 C.3      1 ZINC000043197676    0.1000
2      N2      0.0021   -0.0041    0.0020 N.pl3    1 ZINC000043197676   -0.3500
3      N3      0.0086   -0.8237   -1.1338 N.2      1 ZINC000043197676   -0.2600
4      C4      0.0271   -2.0733   -0.7448 C.2      1 ZINC000043197676    0.0700
5      C5      0.0332   -2.1047    0.6509 C.2      1 ZINC000043197676   -0.1500
6      Cl6     0.0571   -3.5302    1.6414 Cl       1 ZINC000043197676   -0.0300
7      C7      0.0235   -0.8137    1.0986 C.2      1 ZINC000043197676    0.1400
8      C8      0.0254   -0.3754    2.5129 C.2      1 ZINC000043197676   -0.1100
9      C9      1.1231   -0.1189    3.2856 C.2      1 ZINC000043197676    0.1100
10     Cl10    2.7767   -0.2517    2.7740 Cl       1 ZINC000043197676    0.0800
11     O11     0.7088    0.2520    4.5035 O.3      1 ZINC000043197676   -0.1500
12     C12    -0.6401    0.2444    4.5464 C.2      1 ZINC000043197676   -0.1000
13     C13    -1.4629    0.5924    5.7085 C.2      1 ZINC000043197676    0.6100
14     O14    -2.6767    0.5495    5.6296 O.2      1 ZINC000043197676   -0.5200
15     N15    -0.8754    0.9600    6.8644 N.am     1 ZINC000043197676   -0.7300
16     C16    -1.6977    1.3078    8.0259 C.3      1 ZINC000043197676    0.1200
17     H17    -2.5897    0.6815    8.0402 H        1 ZINC000043197676    0.1300
18     C18    -2.1089    2.7789    7.9375 C.3      1 ZINC000043197676   -0.0200
19     N19    -2.7768    3.0243    6.6523 N.4      1 ZINC000043197676   -0.6400
20     H20    -3.5971    2.4410    6.5828 H        1 ZINC000043197676    0.4400
21     H21    -3.0479    3.9944    6.5940 H        1 ZINC000043197676    0.4400
22     H22    -2.1439    2.8059    5.8973 H        1 ZINC000043197676    0.4300
23     C23    -0.8934    1.0792    9.3072 C.3      1 ZINC000043197676   -0.0800
24     C24    -0.5936   -0.3901    9.4566 C.ar     1 ZINC000043197676   -0.0900
25     C25    -1.4772   -1.2096   10.1334 C.ar     1 ZINC000043197676   -0.0900
26     C26    -1.2043   -2.5579   10.2718 C.ar     1 ZINC000043197676   -0.1200
27     C27    -0.0458   -3.0882    9.7322 C.ar     1 ZINC000043197676    0.0800
28     F28     0.2214   -4.4057    9.8666 F        1 ZINC000043197676   -0.1200
29     C29     0.8406   -2.2660    9.0527 C.ar     1 ZINC000043197676    0.0800
30     F30     1.9724   -2.7816    8.5250 F        1 ZINC000043197676   -0.1200
31     C31     0.5623   -0.9179    8.9117 C.ar     1 ZINC000043197676   -0.1200
32     C32    -1.1076   -0.1355    3.3230 C.2      1 ZINC000043197676   -0.0500
33     H33     1.0048    1.8381    0.0023 H        1 ZINC000043197676    0.0800
34     H34    -0.5450    1.8219   -0.8730 H        1 ZINC000043197676    0.1000
35     H35    -0.5280    1.8123    0.9069 H        1 ZINC000043197676    0.0800
36     H36     0.0356   -2.9358   -1.3948 H        1 ZINC000043197676    0.2000
37     H37     0.0920    0.9942    6.9274 H        1 ZINC000043197676    0.4200
38     H38    -2.7925    3.0147    8.7530 H        1 ZINC000043197676    0.1500
39     H39    -1.2227    3.4090    8.0125 H        1 ZINC000043197676    0.1400
40     H40     0.0414    1.6372    9.2537 H        1 ZINC000043197676    0.1000
41     H41    -1.4721    1.4211   10.1653 H        1 ZINC000043197676    0.1100
42     H42    -2.3816   -0.7962   10.5548 H        1 ZINC000043197676    0.1400
43     H43    -1.8952   -3.1970   10.8015 H        1 ZINC000043197676    0.1500
44     H44     1.2515   -0.2766    8.3825 H        1 ZINC000043197676    0.1400
45     H45    -2.1424   -0.2398    3.0319 H        1 ZINC000043197676    0.1800
@<TRIPOS>BOND
1     1     2     1
2     1     33    1
3     1     34    1
4     1     35    1
5     2     7     1
6     2     3     1
7     3     4     2
8     4     5     1
9     4     36    1
10    5     6     1
11    5     7     2
12    7     8     1
13    8     32    1
14    8     9     2
15    9     10    1
16    9     11    1
17    11    12    1
18    12    13    1
19    12    32    2
20    13    14    2
21    13    15    am
22    15    16    1
23    15    37    1
24    16    17    1
25    16    18    1
26    16    23    1
27    18    19    1
28    18    38    1
29    18    39    1
30    19    20    1
31    19    21    1
32    19    22    1
33    23    24    1
34    23    40    1
35    23    41    1
36    24    31    ar
37    24    25    ar
38    25    26    ar
39    25    42    1
40    26    27    ar
41    26    43    1
42    27    28    1
43    27    29    ar
44    29    30    1
45    29    31    ar
46    31    44    1
47    32    45    1
@<TRIPOS>SUBSTRUCTURE
1   ZINC000043197676 1     RESIDUE    1   A     ZIN   1


@<TRIPOS>MOLECULE
C1CN(CCC1(C(=O)NC(CCO)C2=CC=C(C=C2)Cl)N)C3=NC=NC4=C3C=CN4
56    59    1     0     0
SMALL
USER_CHARGES
@<TRIPOS>ATOM
1      N1      0.1709    1.0071    0.1305 N.4      1 ZINC000043204023   -0.6300
2      H2      0.1846   -0.0018    0.1246 H        1 ZINC000043204023    0.4500
3      H3      1.1069    1.3553    0.2743 H        1 ZINC000043204023    0.4400
4      H4     -0.1813    1.3438   -0.7530 H        1 ZINC000043204023    0.4300
5      C5     -0.6992    1.4786    1.2162 C.3      1 ZINC000043204023    0.0400
6      C6     -0.7230    2.9854    1.2241 C.2      1 ZINC000043204023    0.5000
7      O7     -0.7218    3.5863    2.2775 O.2      1 ZINC000043204023   -0.4600
8      N8     -0.7457    3.6651    0.0605 N.am     1 ZINC000043204023   -0.7200
9      C9     -0.7689    5.1299    0.0682 C.3      1 ZINC000043204023    0.1900
10     H10    -1.3553    5.4795    0.9179 H        1 ZINC000043204023    0.1100
11     C11     0.6611    5.6620    0.1820 C.3      1 ZINC000043204023   -0.1300
12     C12     1.2489    5.2593    1.5360 C.3      1 ZINC000043204023    0.0800
13     O13     2.5845    5.7563    1.6422 O.3      1 ZINC000043204023   -0.5700
14     C14    -1.3904    5.6292   -1.2106 C.ar     1 ZINC000043204023   -0.1000
15     C15    -1.1041    5.0020   -2.4088 C.ar     1 ZINC000043204023   -0.1100
16     C16    -1.6738    5.4595   -3.5821 C.ar     1 ZINC000043204023   -0.1000
17     C17    -2.5308    6.5453   -3.5571 C.ar     1 ZINC000043204023   -0.0300
18     Cl18   -3.2472    7.1201   -5.0302 Cl       1 ZINC000043204023   -0.0500
19     C19    -2.8170    7.1726   -2.3576 C.ar     1 ZINC000043204023   -0.1000
20     C20    -2.2511    6.7107   -1.1843 C.ar     1 ZINC000043204023   -0.0900
21     C21    -2.1182    0.9442    1.0034 C.3      1 ZINC000043204023   -0.1300
22     C22    -3.0053    1.3878    2.1689 C.3      1 ZINC000043204023    0.0600
23     N23    -2.4533    0.8741    3.4290 N.3      1 ZINC000043204023   -0.4700
24     C24    -3.3001    1.1460    4.4884 C.ar     1 ZINC000043204023    0.4000
25     C25    -2.9695    0.7501    5.7932 C.ar     1 ZINC000043204023   -0.2200
26     C26    -1.8454    0.0473    6.4090 C.2      1 ZINC000043204023   -0.1800
27     C27    -2.1109   -0.0335    7.7231 C.2      1 ZINC000043204023    0.0700
28     N28    -3.3159    0.5628    7.9912 N.pl3    1 ZINC000043204023   -0.5700
29     C29    -3.8644    1.0501    6.8369 C.ar     1 ZINC000043204023    0.3300
30     N30    -4.9900    1.6992    6.5435 N.ar     1 ZINC000043204023   -0.5400
31     C31    -5.2589    2.0518    5.3050 C.ar     1 ZINC000043204023    0.3400
32     N32    -4.4455    1.7940    4.2968 N.ar     1 ZINC000043204023   -0.5700
33     C33    -1.1095    1.4112    3.6781 C.3      1 ZINC000043204023    0.0300
34     C34    -0.1658    0.9682    2.5577 C.3      1 ZINC000043204023   -0.1200
35     H35    -0.7467    3.1844   -0.7820 H        1 ZINC000043204023    0.3900
36     H36     1.2701    5.2411   -0.6181 H        1 ZINC000043204023    0.0800
37     H37     0.6521    6.7487    0.0985 H        1 ZINC000043204023    0.1000
38     H38     0.6399    5.6802    2.3360 H        1 ZINC000043204023    0.0600
39     H39     1.2579    4.1726    1.6194 H        1 ZINC000043204023    0.0300
40     H40     3.0202    5.5379    2.4774 H        1 ZINC000043204023    0.3900
41     H41    -0.4348    4.1546   -2.4282 H        1 ZINC000043204023    0.1200
42     H42    -1.4498    4.9696   -4.5181 H        1 ZINC000043204023    0.1400
43     H43    -3.4857    8.0204   -2.3376 H        1 ZINC000043204023    0.1400
44     H44    -2.4747    7.2000   -0.2478 H        1 ZINC000043204023    0.1400
45     H45    -2.5195    1.3387    0.0699 H        1 ZINC000043204023    0.1000
46     H46    -2.0941   -0.1446    0.9584 H        1 ZINC000043204023    0.1200
47     H47    -3.0400    2.4767    2.2048 H        1 ZINC000043204023    0.0700
48     H48    -4.0129    0.9969    2.0277 H        1 ZINC000043204023    0.1200
49     H49    -0.9698   -0.3336    5.9044 H        1 ZINC000043204023    0.1500
50     H50    -1.4712   -0.4991    8.4582 H        1 ZINC000043204023    0.1900
51     H51    -3.7202    0.6291    8.8704 H        1 ZINC000043204023    0.4300
52     H52    -6.1814    2.5765    5.1048 H        1 ZINC000043204023    0.2000
53     H53    -1.1531    2.4999    3.7070 H        1 ZINC000043204023    0.1000
54     H54    -0.7402    1.0372    4.6330 H        1 ZINC000043204023    0.1100
55     H55    -0.1110   -0.1202    2.5371 H        1 ZINC000043204023    0.1100
56     H56     0.8278    1.3799    2.7346 H        1 ZINC000043204023    0.1000
@<TRIPOS>BOND
1     1     2     1
2     1     3     1
3     1     4     1
4     1     5     1
5     5     34    1
6     5     6     1
7     5     21    1
8     6     7     2
9     6     8     am
10    8     9     1
11    8     35    1
12    9     10    1
13    9     11    1
14    9     14    1
15    11    12    1
16    11    36    1
17    11    37    1
18    12    13    1
19    12    38    1
20    12    39    1
21    13    40    1
22    14    20    ar
23    14    15    ar
24    15    16    ar
25    15    41    1
26    16    17    ar
27    16    42    1
28    17    18    1
29    17    19    ar
30    19    20    ar
31    19    43    1
32    20    44    1
33    21    22    1
34    21    45    1
35    21    46    1
36    22    23    1
37    22    47    1
38    22    48    1
39    23    24    1
40    23    33    1
41    24    32    ar
42    24    25    ar
43    25    29    ar
44    25    26    1
45    26    27    2
46    26    49    1
47    27    28    1
48    27    50    1
49    28    29    1
50    28    51    1
51    29    30    ar
52    30    31    ar
53    31    32    ar
54    31    52    1
55    33    34    1
56    33    53    1
57    33    54    1
58    34    55    1
59    34    56    1
@<TRIPOS>SUBSTRUCTURE
1   ZINC000043204023 1     RESIDUE    1   A     ZIN   1


@<TRIPOS>MOLECULE
O=C(CC(/C=C/C1=CC=C(O)C(OC)=C1)=O)/C=C/C2=CC=C(O)C(OC)=C2
47    48    1     0     0
SMALL
USER_CHARGES
@<TRIPOS>ATOM
1      C1     -0.0173    1.4248    0.0099 C.3      1 ZINC000000899824    0.0200
2      O2      0.0021   -0.0041    0.0020 O.3      1 ZINC000000899824   -0.3100
3      C3     -1.2011   -0.6379    0.0101 C.ar     1 ZINC000000899824    0.1000
4      C4     -2.3683    0.0982    0.0195 C.ar     1 ZINC000000899824   -0.1700
5      C5     -3.6061   -0.5585    0.0278 C.ar     1 ZINC000000899824   -0.0600
6      C6     -4.8515    0.2183    0.0373 C.2      1 ZINC000000899824    0.0000
7      C7     -6.0479   -0.4192    0.0454 C.2      1 ZINC000000899824   -0.2400
8      C8     -7.2424    0.3259    0.0545 C.2      1 ZINC000000899824    0.3700
9      O9     -7.2010    1.5399    0.0552 O.2      1 ZINC000000899824   -0.4300
10     C10    -8.5723   -0.3828    0.0635 C.3      1 ZINC000000899824   -0.2200
11     C11    -9.6837    0.6349    0.0722 C.2      1 ZINC000000899824    0.3700
12     O12    -9.4212    1.8210    0.0713 O.2      1 ZINC000000899824   -0.4300
13     C13   -11.0262    0.2111    0.0815 C.2      1 ZINC000000899824   -0.2400
14     C14   -12.0260    1.1266    0.0894 C.2      1 ZINC000000899824    0.0000
15     C15   -13.4257    0.6847    0.0990 C.ar     1 ZINC000000899824   -0.0500
16     C16   -13.7307   -0.6820    0.1059 C.ar     1 ZINC000000899824   -0.1200
17     C17   -15.0451   -1.0935    0.1155 C.ar     1 ZINC000000899824   -0.1100
18     C18   -16.0700   -0.1565    0.1182 C.ar     1 ZINC000000899824    0.0900
19     O19   -17.3638   -0.5687    0.1281 O.3      1 ZINC000000899824   -0.4800
20     C20   -15.7746    1.2071    0.1114 C.ar     1 ZINC000000899824    0.1000
21     O21   -16.7819    2.1208    0.1146 O.3      1 ZINC000000899824   -0.3100
22     C22   -16.4071    3.4997    0.1071 C.3      1 ZINC000000899824    0.0200
23     C23   -14.4607    1.6291    0.1072 C.ar     1 ZINC000000899824   -0.1700
24     C24    -3.6513   -1.9581    0.0265 C.ar     1 ZINC000000899824   -0.1200
25     C25    -2.4809   -2.6842    0.0171 C.ar     1 ZINC000000899824   -0.1100
26     C26    -1.2549   -2.0321    0.0031 C.ar     1 ZINC000000899824    0.0900
27     O27    -0.1046   -2.7537   -0.0066 O.3      1 ZINC000000899824   -0.4800
28     H28     1.0053    1.8021    0.0021 H        1 ZINC000000899824    0.1000
29     H29    -0.5445    1.7859   -0.8732 H        1 ZINC000000899824    0.0600
30     H30    -0.5275    1.7763    0.9067 H        1 ZINC000000899824    0.0600
31     H31    -2.3279    1.1774    0.0208 H        1 ZINC000000899824    0.1400
32     H32    -4.8147    1.2977    0.0380 H        1 ZINC000000899824    0.1400
33     H33    -6.0846   -1.4985    0.0448 H        1 ZINC000000899824    0.1400
34     H34    -8.6577   -1.0064   -0.8264 H        1 ZINC000000899824    0.1300
35     H35    -8.6450   -1.0078    0.9535 H        1 ZINC000000899824    0.1300
36     H36   -11.2596   -0.8434    0.0823 H        1 ZINC000000899824    0.1400
37     H37   -11.7926    2.1811    0.0886 H        1 ZINC000000899824    0.1400
38     H38   -12.9357   -1.4130    0.1035 H        1 ZINC000000899824    0.1400
39     H39   -15.2792   -2.1478    0.1204 H        1 ZINC000000899824    0.1400
40     H40   -17.7329   -0.6846    1.0143 H        1 ZINC000000899824    0.3900
41     H41   -17.3034    4.1199    0.1107 H        1 ZINC000000899824    0.1000
42     H42   -15.8102    3.7188    0.9925 H        1 ZINC000000899824    0.0600
43     H43   -15.8217    3.7123   -0.7874 H        1 ZINC000000899824    0.0600
44     H44   -14.2309    2.6844    0.1022 H        1 ZINC000000899824    0.1400
45     H45    -4.6033   -2.4679    0.0333 H        1 ZINC000000899824    0.1400
46     H46    -2.5168   -3.7636    0.0165 H        1 ZINC000000899824    0.1400
47     H47     0.2197   -2.9650   -0.8927 H        1 ZINC000000899824    0.3900
@<TRIPOS>BOND
1     1     2     1
2     1     28    1
3     1     29    1
4     1     30    1
5     2     3     1
6     3     26    ar
7     3     4     ar
8     4     5     ar
9     4     31    1
10    5     6     1
11    5     24    ar
12    6     7     2
13    6     32    1
14    7     8     1
15    7     33    1
16    8     9     2
17    8     10    1
18    10    11    1
19    10    34    1
20    10    35    1
21    11    12    2
22    11    13    1
23    13    14    2
24    13    36    1
25    14    15    1
26    14    37    1
27    15    23    ar
28    15    16    ar
29    16    17    ar
30    16    38    1
31    17    18    ar
32    17    39    1
33    18    19    1
34    18    20    ar
35    19    40    1
36    20    21    1
37    20    23    ar
38    21    22    1
39    22    41    1
40    22    42    1
41    22    43    1
42    23    44    1
43    24    25    ar
44    24    45    1
45    25    26    ar
46    25    46    1
47    26    27    1
48    27    47    1
@<TRIPOS>SUBSTRUCTURE
1   ZINC000000899824 1     RESIDUE    1   A     ZIN   1


@<TRIPOS>MOLECULE
CCCCCC=CC=C1C(C=CC1=O)CC=CCCCC(=O)O
  50   50    0    0    0
SMALL
USER_CHARGES
NO_NAME
@<TRIPOS>ATOM
    1 C1        0.9601     1.3661     0.6123 C.3    1 <0>      -0.1500
    2 C2        0.9867    -0.1628     0.5600 C.3    1 <0>      -0.1300
    3 C3        1.4515    -0.6177    -0.8249 C.3    1 <0>      -0.1200
    4 C4        1.4780    -2.1466    -0.8772 C.3    1 <0>      -0.1200
    5 C5        1.9429    -2.6015    -2.2621 C.3    1 <0>      -0.1000
    6 C6        1.9690    -4.1074    -2.3137 C.2    1 <0>      -0.1200
    7 C7        1.2918    -4.7547    -3.2650 C.2    1 <0>      -0.1600
    8 C8        1.3172    -6.2159    -3.3151 C.2    1 <0>      -0.0100
    9 C9        0.6304    -6.8723    -4.2798 C.2    1 <0>      -0.2200
   10 C10      -0.1810    -6.2874    -5.3520 C.2    1 <0>       0.4100
   11 O11      -0.3645    -5.0983    -5.5426 O.2    1 <0>      -0.4500
   12 C12      -0.7332    -7.3845    -6.1561 C.2    1 <0>      -0.2400
   13 C13      -0.3488    -8.5636    -5.6929 C.2    1 <0>      -0.0600
   14 C14       0.5392    -8.3689    -4.4892 C.3    1 <0>      -0.0300
   15 H15       0.0924    -8.8381    -3.6126 H      1 <0>       0.1000
   16 C16       1.9250    -8.9605    -4.7547 C.3    1 <0>      -0.0800
   17 C17       1.8159   -10.4581    -4.8825 C.2    1 <0>      -0.1800
   18 C18       2.3179   -11.0644    -5.9296 C.2    1 <0>      -0.1300
   19 C19       3.1607   -10.2949    -6.9138 C.3    1 <0>      -0.1100
   20 C20       4.5042   -11.0033    -7.0982 C.3    1 <0>      -0.0900
   21 C21       5.3598   -10.2221    -8.0975 C.3    1 <0>      -0.1800
   22 C22       6.6831   -10.9199    -8.2792 C.2    1 <0>       0.4900
   23 O23       6.9199   -11.9469    -7.6662 O.co2  1 <0>      -0.7000
   24 O24       7.5168   -10.4574    -9.0391 O.co2  1 <0>      -0.7100
   25 H25       1.9604     1.7536     0.4193 H      1 <0>       0.0500
   26 H26       0.2720     1.7436    -0.1441 H      1 <0>       0.0500
   27 H27       0.6290     1.6901     1.5989 H      1 <0>       0.0500
   28 H28       1.6747    -0.5404     1.3163 H      1 <0>       0.0600
   29 H29      -0.0137    -0.5504     0.7529 H      1 <0>       0.0600
   30 H30       0.7634    -0.2402    -1.5813 H      1 <0>       0.0600
   31 H31       2.4518    -0.2301    -1.0179 H      1 <0>       0.0600
   32 H32       2.1661    -2.5241    -0.1209 H      1 <0>       0.0600
   33 H33       0.4777    -2.5342    -0.6843 H      1 <0>       0.0600
   34 H34       1.2548    -2.2240    -3.0185 H      1 <0>       0.0700
   35 H35       2.9432    -2.2139    -2.4551 H      1 <0>       0.0800
   36 H36       2.5356    -4.6630    -1.5811 H      1 <0>       0.1100
   37 H37       0.7253    -4.1990    -3.9976 H      1 <0>       0.1400
   38 H38       1.8837    -6.7715    -2.5825 H      1 <0>       0.1300
   39 H39      -1.3719    -7.2472    -7.0161 H      1 <0>       0.1400
   40 H40      -0.6249    -9.5186    -6.1150 H      1 <0>       0.1500
   41 H41       2.3263    -8.5452    -5.6791 H      1 <0>       0.0800
   42 H42       2.5900    -8.7139    -3.9269 H      1 <0>       0.0700
   43 H43       1.3238   -11.0314    -4.1108 H      1 <0>       0.1100
   44 H44       2.1279   -12.1158    -6.0875 H      1 <0>       0.1100
   45 H45       2.6433   -10.2420    -7.8717 H      1 <0>       0.0600
   46 H46       3.3304    -9.2865    -6.5364 H      1 <0>       0.0700
   47 H47       5.0215   -11.0562    -6.1403 H      1 <0>       0.0600
   48 H48       4.3344   -12.0117    -7.4757 H      1 <0>       0.0600
   49 H49       4.8424   -10.1692    -9.0554 H      1 <0>       0.0600
   50 H50       5.5295    -9.2137    -7.7201 H      1 <0>       0.0500
@<TRIPOS>BOND
   1    1    2 1
   2    1   25 1
   3    1   26 1
   4    1   27 1
   5    2    3 1
   6    2   28 1
   7    2   29 1
   8    3    4 1
   9    3   30 1
  10    3   31 1
  11    4    5 1
  12    4   32 1
  13    4   33 1
  14    5    6 1
  15    5   34 1
  16    5   35 1
  17    6    7 2
  18    6   36 1
  19    7    8 1
  20    7   37 1
  21    8    9 2
  22    8   38 1
  23    9   14 1
  24    9   10 1
  25   10   11 2
  26   10   12 1
  27   12   13 2
  28   12   39 1
  29   13   14 1
  30   13   40 1
  31   14   15 1
  32   14   16 1
  33   16   17 1
  34   16   41 1
  35   16   42 1
  36   17   18 2
  37   17   43 1
  38   18   19 1
  39   18   44 1
  40   19   20 1
  41   19   45 1
  42   19   46 1
  43   20   21 1
  44   20   47 1
  45   20   48 1
  46   21   22 1
  47   21   49 1
  48   21   50 1
  49   22   23 ar
  50   22   24 ar


@<TRIPOS>MOLECULE
COC1=C(C=C(C=C1)C=CC2=CC(=C(C(=C2)OC)OC)OC)O
  43   44    0    0    0
SMALL
USER_CHARGES
NO_NAME
@<TRIPOS>ATOM
    1 C1       -0.0173     1.4248     0.0099 C.3    1 <0>       0.0200
    2 O2        0.0021    -0.0041     0.0020 O.3    1 <0>      -0.3100
    3 C3        0.6060    -0.6073    -1.0561 C.ar   1 <0>       0.1100
    4 C4        1.1721     0.1631    -2.0608 C.ar   1 <0>      -0.1900
    5 C5        1.7861    -0.4435    -3.1367 C.ar   1 <0>      -0.0800
    6 C6        1.8392    -1.8375    -3.2157 C.ar   1 <0>      -0.0800
    7 C7        2.4950    -2.4879    -4.3637 C.2    1 <0>      -0.0800
    8 C8        3.0428    -1.7407    -5.3360 C.2    1 <0>      -0.1200
    9 C9        3.6985    -2.3910    -6.4840 C.ar   1 <0>       0.0200
   10 C10       3.7463    -3.7854    -6.5656 C.ar   1 <0>      -0.2300
   11 C11       4.3623    -4.3928    -7.6449 C.ar   1 <0>       0.1500
   12 O12       4.4088    -5.7496    -7.7252 O.3    1 <0>      -0.3000
   13 C13       3.8017    -6.4838    -6.6602 C.3    1 <0>       0.0200
   14 C14       4.9340    -3.6172    -8.6487 C.ar   1 <0>       0.0300
   15 O15       5.5391    -4.2177    -9.7090 O.3    1 <0>      -0.3100
   16 C16       4.7216    -4.5051   -10.8452 C.3    1 <0>       0.0400
   17 C17       4.8877    -2.2287    -8.5708 C.ar   1 <0>       0.1500
   18 O18       5.4469    -1.4742    -9.5545 O.3    1 <0>      -0.3000
   19 C19       5.3630    -0.0549    -9.4105 C.3    1 <0>       0.0200
   20 C20       4.2690    -1.6150    -7.4966 C.ar   1 <0>      -0.2200
   21 C21       1.2688    -2.6136    -2.2024 C.ar   1 <0>      -0.0900
   22 C22       0.6597    -1.9981    -1.1254 C.ar   1 <0>       0.0800
   23 O23       0.1038    -2.7499    -0.1378 O.3    1 <0>      -0.4900
   24 H24       1.0053     1.8021     0.0021 H      1 <0>       0.0600
   25 H25      -0.5445     1.7859    -0.8732 H      1 <0>       0.0600
   26 H26      -0.5275     1.7763     0.9067 H      1 <0>       0.1000
   27 H27       1.1317     1.2407    -2.0008 H      1 <0>       0.1400
   28 H28       2.2255     0.1589    -3.9181 H      1 <0>       0.1300
   29 H29       2.5352    -3.5655    -4.4233 H      1 <0>       0.1200
   30 H30       3.0026    -0.6631    -5.2764 H      1 <0>       0.1300
   31 H31       3.3031    -4.3879    -5.7866 H      1 <0>       0.1400
   32 H32       4.2894    -6.2292    -5.7192 H      1 <0>       0.0600
   33 H33       2.7433    -6.2300    -6.6011 H      1 <0>       0.0600
   34 H34       3.9093    -7.5521    -6.8478 H      1 <0>       0.1000
   35 H35       3.9134    -5.1748   -10.5513 H      1 <0>       0.0400
   36 H36       4.3015    -3.5777   -11.2345 H      1 <0>       0.0400
   37 H37       5.3262    -4.9820   -11.6166 H      1 <0>       0.0900
   38 H38       5.8466     0.4258   -10.2608 H      1 <0>       0.1000
   39 H39       4.3158     0.2450    -9.3708 H      1 <0>       0.0600
   40 H40       5.8626     0.2470    -8.4900 H      1 <0>       0.0600
   41 H41       4.2331    -0.5372    -7.4369 H      1 <0>       0.1400
   42 H42       1.3074    -3.6914    -2.2592 H      1 <0>       0.1400
   43 H43       0.7124    -2.9658     0.5820 H      1 <0>       0.3900
@<TRIPOS>BOND
   1    1    2 1
   2    1   24 1
   3    1   25 1
   4    1   26 1
   5    2    3 1
   6    3   22 ar
   7    3    4 ar
   8    4    5 ar
   9    4   27 1
  10    5    6 ar
  11    5   28 1
  12    6    7 1
  13    6   21 ar
  14    7    8 2
  15    7   29 1
  16    8    9 1
  17    8   30 1
  18    9   20 ar
  19    9   10 ar
  20   10   11 ar
  21   10   31 1
  22   11   12 1
  23   11   14 ar
  24   12   13 1
  25   13   32 1
  26   13   33 1
  27   13   34 1
  28   14   15 1
  29   14   17 ar
  30   15   16 1
  31   16   35 1
  32   16   36 1
  33   16   37 1
  34   17   18 1
  35   17   20 ar
  36   18   19 1
  37   19   38 1
  38   19   39 1
  39   19   40 1
  40   20   41 1
  41   21   22 ar
  42   21   42 1
  43   22   23 1
  44   23   43 1


@<TRIPOS>MOLECULE
C1COCCN1C2=NC(=NC(=C2)C3=CN=C(C=C3C(F)(F)F)N)N4CCOCC4
50    53    1     0     0
SMALL
USER_CHARGES
@<TRIPOS>ATOM
1      N1     -0.0167    1.3835    0.0096 N.pl3    1 ZINC000043154039   -0.8400
2      C2      0.0021   -0.0041    0.0020 C.ar     1 ZINC000043154039    0.4300
3      C3     -1.1996   -0.7076    0.0039 C.ar     1 ZINC000043154039   -0.2000
4      C4     -1.1727   -2.0877   -0.0042 C.ar     1 ZINC000043154039   -0.0500
5      C5     -2.4518   -2.8845   -0.0029 C.3      1 ZINC000043154039    0.5200
6      F6     -3.5450   -2.0116    0.0071 F        1 ZINC000043154039   -0.1800
7      F7     -2.5041   -3.6842   -1.1496 F        1 ZINC000043154039   -0.1600
8      F8     -2.4937   -3.6974    1.1349 F        1 ZINC000043154039   -0.1600
9      C9      0.0718   -2.7294   -0.0140 C.ar     1 ZINC000043154039   -0.1300
10     C10     0.1540   -4.2093   -0.0235 C.ar     1 ZINC000043154039    0.2600
11     C11     1.3921   -4.8480   -0.0275 C.ar     1 ZINC000043154039   -0.2600
12     C12     1.4185   -6.2417   -0.0365 C.ar     1 ZINC000043154039    0.3900
13     N13     2.6265   -6.9210   -0.0403 N.3      1 ZINC000043154039   -0.4700
14     C14     3.4589   -6.5093   -1.1801 C.3      1 ZINC000043154039    0.0200
15     C15     4.8037   -7.2377   -1.1124 C.3      1 ZINC000043154039    0.0600
16     O16     4.5751   -8.6493   -1.0909 O.3      1 ZINC000043154039   -0.3800
17     C17     3.7684   -9.0852    0.0066 C.3      1 ZINC000043154039    0.0600
18     C18     2.4130   -8.3755   -0.0497 C.3      1 ZINC000043154039    0.0300
19     N19     0.2692   -6.9108   -0.0408 N.ar     1 ZINC000043154039   -0.5700
20     C20    -0.8904   -6.2700   -0.0367 C.ar     1 ZINC000043154039    0.5400
21     N21    -2.0646   -7.0027   -0.0415 N.3      1 ZINC000043154039   -0.4600
22     C22    -2.1091   -7.9192   -1.1901 C.3      1 ZINC000043154039    0.0300
23     C23    -3.3933   -8.7501   -1.1236 C.3      1 ZINC000043154039    0.0600
24     O24    -4.5217   -7.8723   -1.0874 O.3      1 ZINC000043154039   -0.3800
25     C25    -4.5110   -6.9662    0.0190 C.3      1 ZINC000043154039    0.0600
26     C26    -3.2382   -6.1172   -0.0358 C.3      1 ZINC000043154039    0.0100
27     N27    -0.9563   -4.9483   -0.0227 N.ar     1 ZINC000043154039   -0.5700
28     C28     1.2313   -1.9578   -0.0153 C.ar     1 ZINC000043154039    0.2000
29     N29     1.1633   -0.6422   -0.0125 N.ar     1 ZINC000043154039   -0.5200
30     H30     0.8166    1.8799    0.0044 H        1 ZINC000043154039    0.4100
31     H31    -0.8633    1.8570    0.0162 H        1 ZINC000043154039    0.4100
32     H32    -2.1417   -0.1797    0.0120 H        1 ZINC000043154039    0.1500
33     H33     2.3090   -4.2773   -0.0242 H        1 ZINC000043154039    0.1500
34     H34     2.9530   -6.7647   -2.1112 H        1 ZINC000043154039    0.0600
35     H35     3.6255   -5.4328   -1.1390 H        1 ZINC000043154039    0.1000
36     H36     5.4021   -6.9791   -1.9860 H        1 ZINC000043154039    0.1100
37     H37     5.3332   -6.9409   -0.2070 H        1 ZINC000043154039    0.0700
38     H38     3.6179  -10.1628   -0.0577 H        1 ZINC000043154039    0.1100
39     H39     4.2678   -8.8422    0.9445 H        1 ZINC000043154039    0.0600
40     H40     1.8162   -8.6613    0.8164 H        1 ZINC000043154039    0.1000
41     H41     1.8905   -8.6607   -0.9628 H        1 ZINC000043154039    0.0600
42     H42    -2.0954   -7.3437   -2.1157 H        1 ZINC000043154039    0.0500
43     H43    -1.2445   -8.5824   -1.1602 H        1 ZINC000043154039    0.1000
44     H44    -3.4583   -9.3904   -2.0033 H        1 ZINC000043154039    0.1100
45     H45    -3.3822   -9.3659   -0.2244 H        1 ZINC000043154039    0.0600
46     H46    -5.3845   -6.3163   -0.0342 H        1 ZINC000043154039    0.1100
47     H47    -4.5324   -7.5301    0.9515 H        1 ZINC000043154039    0.0600
48     H48    -3.1978   -5.4650    0.8366 H        1 ZINC000043154039    0.1100
49     H49    -3.2425   -5.5129   -0.9430 H        1 ZINC000043154039    0.0800
50     H50     2.1962   -2.4431   -0.0226 H        1 ZINC000043154039    0.1700
@<TRIPOS>BOND
1     1     2     1
2     1     30    1
3     1     31    1
4     2     29    ar
5     2     3     ar
6     3     4     ar
7     3     32    1
8     4     5     1
9     4     9     ar
10    5     6     1
11    5     7     1
12    5     8     1
13    9     10    1
14    9     28    ar
15    10    27    ar
16    10    11    ar
17    11    12    ar
18    11    33    1
19    12    13    1
20    12    19    ar
21    13    18    1
22    13    14    1
23    14    15    1
24    14    34    1
25    14    35    1
26    15    16    1
27    15    36    1
28    15    37    1
29    16    17    1
30    17    18    1
31    17    38    1
32    17    39    1
33    18    40    1
34    18    41    1
35    19    20    ar
36    20    21    1
37    20    27    ar
38    21    26    1
39    21    22    1
40    22    23    1
41    22    42    1
42    22    43    1
43    23    24    1
44    23    44    1
45    23    45    1
46    24    25    1
47    25    26    1
48    25    46    1
49    25    47    1
50    26    48    1
51    26    49    1
52    28    29    ar
53    28    50    1
@<TRIPOS>SUBSTRUCTURE
1   ZINC000043154039 1     RESIDUE    1   A     ZIN   1


@<TRIPOS>MOLECULE
C1COCCN1C2=NC(=NC(=N2)C3=CN=C(C=C3C(F)(F)F)N)N4CCOCC4
49    52    1     0     0
SMALL
USER_CHARGES
@<TRIPOS>ATOM
1      N1     -0.0167    1.3826    0.0096 N.pl3    1 ZINC000068203488   -0.8300
2      C2      0.0021   -0.0041    0.0020 C.ar     1 ZINC000068203488    0.4300
3      C3     -1.1999   -0.7077    0.0040 C.ar     1 ZINC000068203488   -0.2000
4      C4     -1.1732   -2.0874   -0.0036 C.ar     1 ZINC000068203488   -0.0400
5      C5     -2.4524   -2.8841   -0.0023 C.3      1 ZINC000068203488    0.5200
6      F6     -3.5455   -2.0110    0.0073 F        1 ZINC000068203488   -0.1800
7      F7     -2.5046   -3.6842   -1.1487 F        1 ZINC000068203488   -0.1600
8      F8     -2.4945   -3.6966    1.1358 F        1 ZINC000068203488   -0.1600
9      C9      0.0718   -2.7295   -0.0131 C.ar     1 ZINC000068203488   -0.1400
10     C10     0.1539   -4.2082   -0.0220 C.ar     1 ZINC000068203488    0.4600
11     N11    -0.9596   -4.9367   -0.0266 N.ar     1 ZINC000068203488   -0.6000
12     C12    -0.8851   -6.2639   -0.0345 C.ar     1 ZINC000068203488    0.5700
13     N13    -2.0400   -7.0197   -0.0397 N.3      1 ZINC000068203488   -0.4500
14     C14    -2.0640   -7.9374   -1.1880 C.3      1 ZINC000068203488    0.0300
15     C15    -3.3299   -8.7958   -1.1220 C.3      1 ZINC000068203488    0.0600
16     O16    -4.4771   -7.9426   -1.0868 O.3      1 ZINC000068203488   -0.3800
17     C17    -4.4867   -7.0360    0.0193 C.3      1 ZINC000068203488    0.0600
18     C18    -3.2324   -6.1598   -0.0351 C.3      1 ZINC000068203488    0.0100
19     N19     0.3013   -6.8633   -0.0380 N.ar     1 ZINC000068203488   -0.5800
20     C20     1.4140   -6.1362   -0.0335 C.ar     1 ZINC000068203488    0.5700
21     N21     2.6455   -6.7596   -0.0370 N.3      1 ZINC000068203488   -0.4500
22     C22     2.7721   -7.6826    1.1002 C.3      1 ZINC000068203488    0.0300
23     C23     4.1252   -8.3948    1.0243 C.3      1 ZINC000068203488    0.0600
24     O24     5.1708   -7.4194    0.9997 O.3      1 ZINC000068203488   -0.3800
25     C25     5.0788   -6.5043   -0.0955 C.3      1 ZINC000068203488    0.0600
26     C26     3.7354   -5.7730   -0.0310 C.3      1 ZINC000068203488    0.0300
27     N27     1.3411   -4.8089   -0.0310 N.ar     1 ZINC000068203488   -0.6000
28     C28     1.2318   -1.9576   -0.0145 C.ar     1 ZINC000068203488    0.2300
29     N29     1.1636   -0.6423   -0.0125 N.ar     1 ZINC000068203488   -0.5300
30     H30     0.8166    1.8790    0.0044 H        1 ZINC000068203488    0.4100
31     H31    -0.8633    1.8561    0.0162 H        1 ZINC000068203488    0.4200
32     H32    -2.1420   -0.1797    0.0118 H        1 ZINC000068203488    0.1600
33     H33    -2.0621   -7.3621   -2.1138 H        1 ZINC000068203488    0.0600
34     H34    -1.1853   -8.5817   -1.1573 H        1 ZINC000068203488    0.1100
35     H35    -3.3806   -9.4378   -2.0014 H        1 ZINC000068203488    0.1100
36     H36    -3.3061   -9.4109   -0.2225 H        1 ZINC000068203488    0.0700
37     H37    -5.3740   -6.4052   -0.0348 H        1 ZINC000068203488    0.1100
38     H38    -4.4965   -7.6000    0.9520 H        1 ZINC000068203488    0.0600
39     H39    -3.2067   -5.5065    0.8370 H        1 ZINC000068203488    0.1100
40     H40    -3.2493   -5.5561   -0.9425 H        1 ZINC000068203488    0.0800
41     H41     2.7075   -7.1222    2.0328 H        1 ZINC000068203488    0.0600
42     H42     1.9701   -8.4198    1.0616 H        1 ZINC000068203488    0.1100
43     H43     4.2475   -9.0376    1.8960 H        1 ZINC000068203488    0.1100
44     H44     4.1687   -8.9980    0.1174 H        1 ZINC000068203488    0.0700
45     H45     5.8909   -5.7799   -0.0337 H        1 ZINC000068203488    0.1100
46     H46     5.1501   -7.0525   -1.0349 H        1 ZINC000068203488    0.0600
47     H47     3.6366   -5.1162   -0.8952 H        1 ZINC000068203488    0.1000
48     H48     3.6863   -5.1820    0.8836 H        1 ZINC000068203488    0.0700
49     H49     2.1966   -2.4428   -0.0218 H        1 ZINC000068203488    0.1800
@<TRIPOS>BOND
1     1     2     1
2     1     30    1
3     1     31    1
4     2     29    ar
5     2     3     ar
6     3     4     ar
7     3     32    1
8     4     5     1
9     4     9     ar
10    5     6     1
11    5     7     1
12    5     8     1
13    9     10    1
14    9     28    ar
15    10    27    ar
16    10    11    ar
17    11    12    ar
18    12    13    1
19    12    19    ar
20    13    18    1
21    13    14    1
22    14    15    1
23    14    33    1
24    14    34    1
25    15    16    1
26    15    35    1
27    15    36    1
28    16    17    1
29    17    18    1
30    17    37    1
31    17    38    1
32    18    39    1
33    18    40    1
34    19    20    ar
35    20    21    1
36    20    27    ar
37    21    26    1
38    21    22    1
39    22    23    1
40    22    41    1
41    22    42    1
42    23    24    1
43    23    43    1
44    23    44    1
45    24    25    1
46    25    26    1
47    25    45    1
48    25    46    1
49    26    47    1
50    26    48    1
51    28    29    ar
52    28    49    1
@<TRIPOS>SUBSTRUCTURE
1   ZINC000068203488 1     RESIDUE    1   A     ZIN   1


@<TRIPOS>MOLECULE
C1=CC(=C(C(=C1)F)C(=O)N2C(=NC(=N2)NC3=CC=C(C=C3)S(=O)(=O)N)N)F
  39   41    0    0    0
SMALL
USER_CHARGES
NO_NAME
@<TRIPOS>ATOM
    1 N1        0.3043     1.2041    -0.2951 N.pl3  1 <0>      -0.7900
    2 C2        0.1983    -0.1698    -0.2306 C.2    1 <0>       0.5900
    3 N3       -0.9185    -0.8574    -0.1342 N.2    1 <0>      -0.5900
    4 C4       -0.6415    -2.1668    -0.0956 C.2    1 <0>       0.5200
    5 N5       -1.5838    -3.1884     0.0039 N.pl3  1 <0>      -0.6200
    6 C6       -2.9405    -2.8778     0.1286 C.ar   1 <0>       0.2300
    7 C7       -3.7863    -3.7237     0.8349 C.ar   1 <0>      -0.1700
    8 C8       -5.1266    -3.4138     0.9561 C.ar   1 <0>       0.0100
    9 C9       -5.6271    -2.2630     0.3750 C.ar   1 <0>      -0.7000
   10 S10      -7.3379    -1.8714     0.5322 S.o2   1 <0>       2.7000
   11 N11      -7.5079    -0.9590     1.9036 N.am   1 <0>      -1.2500
   12 O12      -7.6562    -1.0188    -0.5591 O.2    1 <0>      -0.9600
   13 O13      -8.0093    -3.0988     0.7810 O.2    1 <0>      -0.9600
   14 C14      -4.7880    -1.4187    -0.3288 C.ar   1 <0>       0.0100
   15 C15      -3.4454    -1.7194    -0.4486 C.ar   1 <0>      -0.1500
   16 N16       0.6567    -2.3355    -0.1668 N.2    1 <0>      -0.3500
   17 N17       1.2325    -1.0581    -0.2615 N.am   1 <0>      -0.4000
   18 C18       2.5453    -0.7678    -0.3550 C.2    1 <0>       0.6200
   19 O19       2.9140     0.3903    -0.3419 O.2    1 <0>      -0.4700
   20 C20       3.5338    -1.8545    -0.4730 C.ar   1 <0>      -0.2000
   21 C21       3.8399    -2.3946    -1.7277 C.ar   1 <0>       0.1700
   22 F22       3.2303    -1.9208    -2.8363 F      1 <0>      -0.1200
   23 C23       4.7681    -3.4135    -1.8288 C.ar   1 <0>      -0.1600
   24 C24       5.3935    -3.9000    -0.6951 C.ar   1 <0>      -0.0300
   25 C25       5.0972    -3.3725     0.5487 C.ar   1 <0>      -0.1600
   26 C26       4.1762    -2.3489     0.6682 C.ar   1 <0>       0.1700
   27 F27       3.8886    -1.8348     1.8840 F      1 <0>      -0.1200
   28 H28       1.1773     1.6202    -0.3698 H      1 <0>       0.4300
   29 H29      -0.4945     1.7538    -0.2696 H      1 <0>       0.4300
   30 H30      -1.2980    -4.1152    -0.0133 H      1 <0>       0.4300
   31 H31      -3.3962    -4.6230     1.2883 H      1 <0>       0.1400
   32 H32      -5.7847    -4.0710     1.5050 H      1 <0>       0.1500
   33 H33      -6.7306    -0.7438     2.4424 H      1 <0>       0.4200
   34 H34      -8.3848    -0.6397     2.1681 H      1 <0>       0.4200
   35 H35      -5.1821    -0.5210    -0.7816 H      1 <0>       0.1500
   36 H36      -2.7906    -1.0596    -0.9983 H      1 <0>       0.1600
   37 H37       5.0056    -3.8313    -2.7960 H      1 <0>       0.1500
   38 H38       6.1173    -4.6969    -0.7815 H      1 <0>       0.1500
   39 H39       5.5901    -3.7587     1.4287 H      1 <0>       0.1500
@<TRIPOS>BOND
   1    1    2 1
   2    1   28 1
   3    1   29 1
   4    2   17 1
   5    2    3 2
   6    3    4 1
   7    4    5 1
   8    4   16 2
   9    5    6 1
  10    5   30 1
  11    6   15 ar
  12    6    7 ar
  13    7    8 ar
  14    7   31 1
  15    8    9 ar
  16    8   32 1
  17    9   10 1
  18    9   14 ar
  19   10   11 am
  20   10   12 2
  21   10   13 2
  22   11   33 1
  23   11   34 1
  24   14   15 ar
  25   14   35 1
  26   15   36 1
  27   16   17 1
  28   17   18 am
  29   18   19 2
  30   18   20 1
  31   20   26 ar
  32   20   21 ar
  33   21   22 1
  34   21   23 ar
  35   23   24 ar
  36   23   37 1
  37   24   25 ar
  38   24   38 1
  39   25   26 ar
  40   25   39 1
  41   26   27 1


@<TRIPOS>MOLECULE
C1=CC(=C(C(=C1)F)C(=O)N2C(=NC(=N2)NC3=CC=C(C=C3)S(=O)(=O)N)N)F
  39   41    0    0    0
SMALL
USER_CHARGES
NO_NAME
@<TRIPOS>ATOM
    1 N1        0.3043     1.2041    -0.2951 N.pl3  1 <0>      -0.7900
    2 C2        0.1983    -0.1698    -0.2306 C.2    1 <0>       0.5900
    3 N3       -0.9185    -0.8574    -0.1342 N.2    1 <0>      -0.5900
    4 C4       -0.6415    -2.1668    -0.0956 C.2    1 <0>       0.5200
    5 N5       -1.5838    -3.1884     0.0039 N.pl3  1 <0>      -0.6200
    6 C6       -2.9405    -2.8778     0.1286 C.ar   1 <0>       0.2300
    7 C7       -3.7863    -3.7237     0.8349 C.ar   1 <0>      -0.1700
    8 C8       -5.1266    -3.4138     0.9561 C.ar   1 <0>       0.0100
    9 C9       -5.6271    -2.2630     0.3750 C.ar   1 <0>      -0.7000
   10 S10      -7.3379    -1.8714     0.5322 S.o2   1 <0>       2.7000
   11 N11      -7.5079    -0.9590     1.9036 N.am   1 <0>      -1.2500
   12 O12      -7.6562    -1.0188    -0.5591 O.2    1 <0>      -0.9600
   13 O13      -8.0093    -3.0988     0.7810 O.2    1 <0>      -0.9600
   14 C14      -4.7880    -1.4187    -0.3288 C.ar   1 <0>       0.0100
   15 C15      -3.4454    -1.7194    -0.4486 C.ar   1 <0>      -0.1500
   16 N16       0.6567    -2.3355    -0.1668 N.2    1 <0>      -0.3500
   17 N17       1.2325    -1.0581    -0.2615 N.am   1 <0>      -0.4000
   18 C18       2.5453    -0.7678    -0.3550 C.2    1 <0>       0.6200
   19 O19       2.9140     0.3903    -0.3419 O.2    1 <0>      -0.4700
   20 C20       3.5338    -1.8545    -0.4730 C.ar   1 <0>      -0.2000
   21 C21       3.8399    -2.3946    -1.7277 C.ar   1 <0>       0.1700
   22 F22       3.2303    -1.9208    -2.8363 F      1 <0>      -0.1200
   23 C23       4.7681    -3.4135    -1.8288 C.ar   1 <0>      -0.1600
   24 C24       5.3935    -3.9000    -0.6951 C.ar   1 <0>      -0.0300
   25 C25       5.0972    -3.3725     0.5487 C.ar   1 <0>      -0.1600
   26 C26       4.1762    -2.3489     0.6682 C.ar   1 <0>       0.1700
   27 F27       3.8886    -1.8348     1.8840 F      1 <0>      -0.1200
   28 H28       1.1773     1.6202    -0.3698 H      1 <0>       0.4300
   29 H29      -0.4945     1.7538    -0.2696 H      1 <0>       0.4300
   30 H30      -1.2980    -4.1152    -0.0133 H      1 <0>       0.4300
   31 H31      -3.3962    -4.6230     1.2883 H      1 <0>       0.1400
   32 H32      -5.7847    -4.0710     1.5050 H      1 <0>       0.1500
   33 H33      -6.7306    -0.7438     2.4424 H      1 <0>       0.4200
   34 H34      -8.3848    -0.6397     2.1681 H      1 <0>       0.4200
   35 H35      -5.1821    -0.5210    -0.7816 H      1 <0>       0.1500
   36 H36      -2.7906    -1.0596    -0.9983 H      1 <0>       0.1600
   37 H37       5.0056    -3.8313    -2.7960 H      1 <0>       0.1500
   38 H38       6.1173    -4.6969    -0.7815 H      1 <0>       0.1500
   39 H39       5.5901    -3.7587     1.4287 H      1 <0>       0.1500
@<TRIPOS>BOND
   1    1    2 1
   2    1   28 1
   3    1   29 1
   4    2   17 1
   5    2    3 2
   6    3    4 1
   7    4    5 1
   8    4   16 2
   9    5    6 1
  10    5   30 1
  11    6   15 ar
  12    6    7 ar
  13    7    8 ar
  14    7   31 1
  15    8    9 ar
  16    8   32 1
  17    9   10 1
  18    9   14 ar
  19   10   11 am
  20   10   12 2
  21   10   13 2
  22   11   33 1
  23   11   34 1
  24   14   15 ar
  25   14   35 1
  26   15   36 1
  27   16   17 1
  28   17   18 am
  29   18   19 2
  30   18   20 1
  31   20   26 ar
  32   20   21 ar
  33   21   22 1
  34   21   23 ar
  35   23   24 ar
  36   23   37 1
  37   24   25 ar
  38   24   38 1
  39   25   26 ar
  40   25   39 1
  41   26   27 1


@<TRIPOS>MOLECULE
C1=CC(=C(C=C1C2=C(C(=O)C3=C(O2)C=C(C=C3)O)O)O)O
30    32    1     0     0
SMALL
USER_CHARGES
@<TRIPOS>ATOM
1      O1     -0.0004   -0.0017   -0.0958 O.2      1 ZINC000000039111   -0.5100
2      C2     -0.0158    1.2176   -0.0437 C.2      1 ZINC000000039111    0.4000
3      C3     -1.2838    1.9649    0.0349 C.ar     1 ZINC000000039111   -0.3500
4      C4     -2.5131    1.3051    0.0531 C.ar     1 ZINC000000039111    0.0100
5      C5     -3.6698    2.0282    0.1269 C.ar     1 ZINC000000039111   -0.2600
6      C6     -3.6282    3.4193    0.1836 C.ar     1 ZINC000000039111    0.3200
7      O7     -4.7858    4.1248    0.2562 O.3      1 ZINC000000039111   -0.6900
8      C8     -2.4158    4.0888    0.1669 C.ar     1 ZINC000000039111   -0.2900
9      C9     -1.2323    3.3686    0.0922 C.ar     1 ZINC000000039111    0.1900
10     O10    -0.0396    3.9988    0.0750 O.3      1 ZINC000000039111   -0.2100
11     C11     1.1247    3.3315    0.0038 C.2      1 ZINC000000039111    0.1200
12     C12     2.3832    4.0994   -0.0099 C.ar     1 ZINC000000039111   -0.0200
13     C13     2.5238    5.1986   -0.8611 C.ar     1 ZINC000000039111   -0.0800
14     C14     3.7015    5.9153   -0.8724 C.ar     1 ZINC000000039111   -0.1300
15     C15     4.7491    5.5480   -0.0400 C.ar     1 ZINC000000039111    0.0900
16     O16     5.9076    6.2578   -0.0551 O.3      1 ZINC000000039111   -0.4900
17     C17     4.6158    4.4527    0.8122 C.ar     1 ZINC000000039111    0.0800
18     O18     5.6446    4.0960    1.6269 O.3      1 ZINC000000039111   -0.4900
19     C19     3.4370    3.7330    0.8329 C.ar     1 ZINC000000039111   -0.0800
20     C20     1.1856    1.9705   -0.0503 C.2      1 ZINC000000039111   -0.0500
21     O21     2.3896    1.3402   -0.1213 O.3      1 ZINC000000039111   -0.4600
22     H22    -2.5500    0.2266    0.0086 H        1 ZINC000000039111    0.1200
23     H23    -4.6218    1.5184    0.1411 H        1 ZINC000000039111    0.1100
24     H24    -2.3918    5.1677    0.2111 H        1 ZINC000000039111    0.1200
25     H25     1.7101    5.4865   -1.5103 H        1 ZINC000000039111    0.1400
26     H26     3.8091    6.7645   -1.5310 H        1 ZINC000000039111    0.1400
27     H27     5.9265    6.9932    0.5725 H        1 ZINC000000039111    0.3900
28     H28     5.6256    4.5229    2.4943 H        1 ZINC000000039111    0.3900
29     H29     3.3325    2.8843    1.4926 H        1 ZINC000000039111    0.1400
30     H30     2.3273    0.3758   -0.1555 H        1 ZINC000000039111    0.4000
@<TRIPOS>BOND
1     1     2     2
2     2     20    1
3     2     3     1
4     3     9     ar
5     3     4     ar
6     4     5     ar
7     4     22    1
8     5     6     ar
9     5     23    1
10    6     7     1
11    6     8     ar
12    8     9     ar
13    8     24    1
14    9     10    1
15    10    11    1
16    11    12    1
17    11    20    2
18    12    19    ar
19    12    13    ar
20    13    14    ar
21    13    25    1
22    14    15    ar
23    14    26    1
24    15    16    1
25    15    17    ar
26    16    27    1
27    17    18    1
28    17    19    ar
29    18    28    1
30    19    29    1
31    20    21    1
32    21    30    1
@<TRIPOS>SUBSTRUCTURE
1   ZINC000000039111 1     RESIDUE    1   A     ZIN   1


@<TRIPOS>MOLECULE
C1=CC=C2C(=C1)C=CC3=C2C=CC(=C3)C4=CC(=NN4C5=CC=C(C=C5)NC(=O)CN)C(F)(F)F
  54   58    0    0    0
SMALL
NO_CHARGES
@<TRIPOS>ATOM
   1 N1            -3.4856     0.5141     1.8484 N.4     
   2 H2            -4.0827     0.6342     2.6528 H       
   3 H3            -3.2658    -0.4642     1.7356 H       
   4 H4            -3.9607     0.8493     1.0238 H       
   5 C5            -2.2444     1.2757     2.0419 C.3     
   6 C6            -1.5347     0.7751     3.2735 C.2     
   7 O7            -2.0156    -0.1273     3.9258 O.2     
   8 N8            -0.3657     1.3302     3.6500 N.am    
   9 C9             0.2466     0.9304     4.8439 C.ar    
  10 C10            0.1622    -0.3925     5.2586 C.ar    
  11 C11            0.7658    -0.7865     6.4356 C.ar    
  12 C12            1.4571     0.1399     7.2055 C.ar    
  13 N13            2.0697    -0.2602     8.4010 N.pl3   
  14 N14            2.8563    -1.4047     8.5838 N.2     
  15 C15            3.2532    -1.4419     9.8313 C.2     
  16 C16            4.1206    -2.5099    10.4462 C.3     
  17 F17            4.5353    -3.4032     9.4526 F       
  18 F18            5.2414    -1.9171    11.0376 F       
  19 F19            3.3905    -3.2007    11.4192 F       
  20 C20            2.7398    -0.3283    10.4960 C.2     
  21 C21            2.0119     0.3987     9.5957 C.2     
  22 C22            1.2889     1.6599     9.8673 C.ar    
  23 C23            0.1834     2.0124     9.0803 C.ar    
  24 C24           -0.4950     3.1706     9.3158 C.ar    
  25 C25           -0.0919     4.0202    10.3492 C.ar    
  26 C26            1.0212     3.6791    11.1523 C.ar    
  27 C27            1.7055     2.4841    10.9031 C.ar    
  28 C28            1.4273     4.5423    12.1979 C.ar    
  29 C29            0.7747     5.6939    12.4524 C.ar    
  30 C30           -0.3454     6.0915    11.6855 C.ar    
  31 C31           -1.0164     7.2915    11.9583 C.ar    
  32 C32           -2.0941     7.6517    11.2029 C.ar    
  33 C33           -2.5387     6.8442    10.1631 C.ar    
  34 C34           -1.9066     5.6686     9.8723 C.ar    
  35 C35           -0.8007     5.2729    10.6270 C.ar    
  36 C36            1.5419     1.4626     6.7906 C.ar    
  37 C37            0.9432     1.8555     5.6108 C.ar    
  38 H38           -1.5993     1.1460     1.1729 H       
  39 H39           -2.4818     2.3326     2.1636 H       
  40 H40            0.0515     2.0066     3.0938 H       
  41 H41           -0.3760    -1.1127     4.6603 H       
  42 H42            0.7002    -1.8151     6.7581 H       
  43 H43            2.8934    -0.0819    11.5363 H       
  44 H44           -0.1332     1.3602     8.2798 H       
  45 H45           -1.3450     3.4321     8.7030 H       
  46 H46            2.5572     2.2091    11.5076 H       
  47 H47            2.2783     4.2721    12.8054 H       
  48 H48            1.1142     6.3265    13.2593 H       
  49 H49           -0.6818     7.9285    12.7637 H       
  50 H50           -2.6088     8.5768    11.4164 H       
  51 H51           -3.3939     7.1494     9.5784 H       
  52 H52           -2.2609     5.0481     9.0624 H       
  53 H53            2.0798     2.1829     7.3892 H       
  54 H54            1.0091     2.8841     5.2882 H       
@<TRIPOS>BOND
   1    1    2 1
   2    1    3 1
   3    1    4 1
   4    1    5 1
   5    5    6 1
   6    5   38 1
   7    5   39 1
   8    6    7 2
   9    6    8 am
  10    8    9 1
  11    8   40 1
  12    9   37 ar
  13    9   10 ar
  14   10   11 ar
  15   10   41 1
  16   11   12 ar
  17   11   42 1
  18   12   13 1
  19   12   36 ar
  20   13   21 1
  21   13   14 1
  22   14   15 2
  23   15   16 1
  24   15   20 1
  25   16   17 1
  26   16   18 1
  27   16   19 1
  28   20   21 2
  29   20   43 1
  30   21   22 1
  31   22   27 ar
  32   22   23 ar
  33   23   24 ar
  34   23   44 1
  35   24   25 ar
  36   24   45 1
  37   25   35 ar
  38   25   26 ar
  39   26   27 ar
  40   26   28 ar
  41   27   46 1
  42   28   29 ar
  43   28   47 1
  44   29   30 ar
  45   29   48 1
  46   30   35 ar
  47   30   31 ar
  48   31   32 ar
  49   31   49 1
  50   32   33 ar
  51   32   50 1
  52   33   34 ar
  53   33   51 1
  54   34   35 ar
  55   34   52 1
  56   36   37 ar
  57   36   53 1
  58   37   54 1


@<TRIPOS>MOLECULE
C1COCCN1C2=CC(=O)C3=C(O2)C(=CC=C3)C4=CC=CC=C4
40    43    1     0     0
SMALL
USER_CHARGES
@<TRIPOS>ATOM
1      O1      0.0062    0.0118   -0.2718 O.2      1 ZINC000000006014   -0.4900
2      C2     -0.0122    1.2249   -0.1380 C.2      1 ZINC000000006014    0.4300
3      C3     -1.2251    1.9400   -0.1142 C.2      1 ZINC000000006014   -0.4000
4      C4     -1.2042    3.2940    0.0375 C.2      1 ZINC000000006014    0.4300
5      N5     -2.3949    3.9735    0.0588 N.pl3    1 ZINC000000006014   -0.6100
6      C6     -3.6101    3.3551    0.6120 C.3      1 ZINC000000006014    0.0900
7      C7     -4.2346    4.3303    1.6164 C.3      1 ZINC000000006014    0.0400
8      O8     -4.3988    5.6065    0.9936 O.3      1 ZINC000000006014   -0.3800
9      C9     -3.1739    6.2213    0.5868 C.3      1 ZINC000000006014    0.0500
10     C10    -2.4938    5.3450   -0.4652 C.3      1 ZINC000000006014    0.0800
11     O11    -0.0646    3.9867    0.1670 O.3      1 ZINC000000006014   -0.2400
12     C12     1.1457    3.3910    0.1564 C.ar     1 ZINC000000006014    0.1600
13     C13     2.3178    4.1433    0.2945 C.ar     1 ZINC000000006014   -0.0700
14     C14     2.2436    5.6158    0.4556 C.ar     1 ZINC000000006014   -0.0500
15     C15     1.4733    6.3775   -0.4213 C.ar     1 ZINC000000006014   -0.1000
16     C16     1.4075    7.7473   -0.2664 C.ar     1 ZINC000000006014   -0.1200
17     C17     2.1044    8.3644    0.7568 C.ar     1 ZINC000000006014   -0.1100
18     C18     2.8706    7.6135    1.6301 C.ar     1 ZINC000000006014   -0.1200
19     C19     2.9394    6.2425    1.4879 C.ar     1 ZINC000000006014   -0.1000
20     C20     3.5524    3.5031    0.2805 C.ar     1 ZINC000000006014   -0.0500
21     C21     3.6301    2.1295    0.1311 C.ar     1 ZINC000000006014   -0.1400
22     C22     2.4829    1.3758   -0.0065 C.ar     1 ZINC000000006014   -0.0300
23     C23     1.2370    2.0001    0.0115 C.ar     1 ZINC000000006014   -0.2100
24     H24    -2.1655    1.4189   -0.2158 H        1 ZINC000000006014    0.1500
25     H25    -4.3178    3.1530   -0.1921 H        1 ZINC000000006014    0.0900
26     H26    -3.3513    2.4241    1.1164 H        1 ZINC000000006014    0.1000
27     H27    -5.2063    3.9527    1.9346 H        1 ZINC000000006014    0.1100
28     H28    -3.5803    4.4294    2.4826 H        1 ZINC000000006014    0.0600
29     H29    -3.3825    7.2041    0.1642 H        1 ZINC000000006014    0.1100
30     H30    -2.5158    6.3272    1.4492 H        1 ZINC000000006014    0.0600
31     H31    -1.4969    5.7317   -0.6764 H        1 ZINC000000006014    0.1000
32     H32    -3.0877    5.3409   -1.3792 H        1 ZINC000000006014    0.0900
33     H33     0.9290    5.8967   -1.2207 H        1 ZINC000000006014    0.1200
34     H34     0.8112    8.3385   -0.9455 H        1 ZINC000000006014    0.1300
35     H35     2.0504    9.4367    0.8741 H        1 ZINC000000006014    0.1200
36     H36     3.4126    8.1006    2.4271 H        1 ZINC000000006014    0.1300
37     H37     3.5379    5.6572    2.1703 H        1 ZINC000000006014    0.1300
38     H38     4.4576    4.0826    0.3866 H        1 ZINC000000006014    0.1400
39     H39     4.5951    1.6445    0.1218 H        1 ZINC000000006014    0.1400
40     H40     2.5499    0.3042   -0.1230 H        1 ZINC000000006014    0.1400
@<TRIPOS>BOND
1     1     2     2
2     2     23    1
3     2     3     1
4     3     4     2
5     3     24    1
6     4     5     1
7     4     11    1
8     5     10    1
9     5     6     1
10    6     7     1
11    6     25    1
12    6     26    1
13    7     8     1
14    7     27    1
15    7     28    1
16    8     9     1
17    9     10    1
18    9     29    1
19    9     30    1
20    10    31    1
21    10    32    1
22    11    12    1
23    12    23    ar
24    12    13    ar
25    13    14    1
26    13    20    ar
27    14    19    ar
28    14    15    ar
29    15    16    ar
30    15    33    1
31    16    17    ar
32    16    34    1
33    17    18    ar
34    17    35    1
35    18    19    ar
36    18    36    1
37    19    37    1
38    20    21    ar
39    20    38    1
40    21    22    ar
41    21    39    1
42    22    23    ar
43    22    40    1
@<TRIPOS>SUBSTRUCTURE
1   ZINC000000006014 1     RESIDUE    1   A     ZIN   1


@<TRIPOS>MOLECULE
CC(C)(C)C1=CN=C(O1)CSC2=CN=C(S2)NC(=O)C3CCNCC3
  50   52    0    0    0
SMALL
USER_CHARGES
NO_NAME
@<TRIPOS>ATOM
    1 C1       -0.0187     1.5258     0.0104 C.3    1 <0>      -0.1400
    2 C2        0.0021    -0.0041     0.0020 C.3    1 <0>       0.0200
    3 C3        0.7421    -0.5109     1.2415 C.3    1 <0>      -0.1400
    4 C4       -1.4333    -0.5336     0.0129 C.3    1 <0>      -0.1500
    5 C5        0.7074    -0.4901    -1.2379 C.2    1 <0>      -0.0100
    6 C6        1.9790    -0.2319    -1.5855 C.2    1 <0>      -0.0400
    7 N7        2.2153    -0.8490    -2.7568 N.2    1 <0>      -0.4500
    8 C8        1.1320    -1.4698    -3.1277 C.2    1 <0>       0.1800
    9 C9        0.9742    -2.2844    -4.3857 C.3    1 <0>      -0.0300
   10 S10       1.4250    -4.0091    -4.0499 S.3    1 <0>       0.0300
   11 C11       1.1821    -4.7931    -5.6090 C.2    1 <0>      -0.2400
   12 C12       1.3800    -6.0917    -5.8751 C.2    1 <0>       0.0900
   13 N13       1.1336    -6.4631    -7.1186 N.2    1 <0>      -0.4500
   14 C14       0.7315    -5.5440    -7.9400 C.2    1 <0>       0.2800
   15 N15       0.4232    -5.7421    -9.2830 N.am   1 <0>      -0.6300
   16 C16       0.5350    -6.9706    -9.8260 C.2    1 <0>       0.5100
   17 O17       0.9041    -7.9036    -9.1444 O.2    1 <0>      -0.4500
   18 C18       0.2013    -7.1850   -11.2798 C.3    1 <0>      -0.1200
   19 C19       1.1196    -6.3209   -12.1489 C.3    1 <0>      -0.1500
   20 C20       0.8296    -6.6028   -13.6247 C.3    1 <0>       0.0000
   21 N21       1.0733    -8.0212   -13.9128 N.4    1 <0>      -0.5100
   22 H22       0.9330    -8.1924   -14.8972 H      1 <0>       0.4400
   23 H23       2.0226    -8.2557   -13.6636 H      1 <0>       0.4300
   24 C24       0.1469    -8.8536   -13.1360 C.3    1 <0>      -0.0100
   25 C25       0.4105    -8.6584   -11.6414 C.3    1 <0>      -0.1300
   26 S26       0.6295    -4.0067    -7.0863 S.3    1 <0>       0.1000
   27 O27       0.1830    -1.2702    -2.2034 O.3    1 <0>      -0.1900
   28 H28       1.0039     1.9031     0.0027 H      1 <0>       0.0600
   29 H29      -0.5459     1.8868    -0.8726 H      1 <0>       0.0600
   30 H30      -0.5289     1.8773     0.9072 H      1 <0>       0.0800
   31 H31       0.2319    -0.1594     2.1383 H      1 <0>       0.0800
   32 H32       0.7568    -1.6008     1.2356 H      1 <0>       0.0600
   33 H33       1.7647    -0.1336     1.2338 H      1 <0>       0.0600
   34 H34      -1.9605    -0.1726    -0.8702 H      1 <0>       0.0600
   35 H35      -1.4185    -1.6235     0.0069 H      1 <0>       0.0600
   36 H36      -1.9435    -0.1821     0.9097 H      1 <0>       0.0700
   37 H37       2.6845     0.3639    -1.0254 H      1 <0>       0.1900
   38 H38      -0.0619    -2.2383    -4.7209 H      1 <0>       0.1200
   39 H39       1.6255    -1.8832    -5.1623 H      1 <0>       0.1300
   40 H40       1.7189    -6.7883    -5.1226 H      1 <0>       0.1900
   41 H41       0.1280    -4.9960    -9.8280 H      1 <0>       0.4200
   42 H42      -0.8379    -6.9097   -11.4597 H      1 <0>       0.1200
   43 H43       0.9363    -5.2676   -11.9366 H      1 <0>       0.1200
   44 H44       2.1599    -6.5614   -11.9300 H      1 <0>       0.1000
   45 H45      -0.2108    -6.3618   -13.8426 H      1 <0>       0.1400
   46 H46       1.4816    -5.9890   -14.2462 H      1 <0>       0.1400
   47 H47      -0.8790    -8.5646   -13.3643 H      1 <0>       0.1300
   48 H48       0.2948    -9.9015   -13.3967 H      1 <0>       0.1400
   49 H49       1.4362    -8.9473   -11.4119 H      1 <0>       0.1000
   50 H50      -0.2795    -9.2758   -11.0663 H      1 <0>       0.1200
@<TRIPOS>BOND
   1    1    2 1
   2    1   28 1
   3    1   29 1
   4    1   30 1
   5    2    3 1
   6    2    4 1
   7    2    5 1
   8    3   31 1
   9    3   32 1
  10    3   33 1
  11    4   34 1
  12    4   35 1
  13    4   36 1
  14    5   27 1
  15    5    6 2
  16    6    7 1
  17    6   37 1
  18    7    8 2
  19    8    9 1
  20    8   27 1
  21    9   10 1
  22    9   38 1
  23    9   39 1
  24   10   11 1
  25   11   26 1
  26   11   12 2
  27   12   13 1
  28   12   40 1
  29   13   14 2
  30   14   15 1
  31   14   26 1
  32   15   16 am
  33   15   41 1
  34   16   17 2
  35   16   18 1
  36   18   25 1
  37   18   19 1
  38   18   42 1
  39   19   20 1
  40   19   43 1
  41   19   44 1
  42   20   21 1
  43   20   45 1
  44   20   46 1
  45   21   22 1
  46   21   23 1
  47   21   24 1
  48   24   25 1
  49   24   47 1
  50   24   48 1
  51   25   49 1
  52   25   50 1


@<TRIPOS>MOLECULE
CC1(CC2=CN=C(N=C2C3=C1C(=NN3C)C(=O)NC)NC4=CC=C(C=C4)N5CCN(CC5)C)C
67    71    1     0     0
SMALL
USER_CHARGES
@<TRIPOS>ATOM
1      C1      1.0328    1.2816    0.1852 C.3      1 ZINC000053119602    0.0900
2      N2      1.2207   -0.1608    0.0106 N.am     1 ZINC000053119602   -0.7200
3      C3      0.2474   -0.9038   -0.5525 C.2      1 ZINC000053119602    0.6100
4      O4     -0.7864   -0.3772   -0.9155 O.2      1 ZINC000053119602   -0.5200
5      C5      0.4369   -2.3585   -0.7287 C.2      1 ZINC000053119602    0.0000
6      N6      0.3685   -3.2816    0.2191 N.2      1 ZINC000053119602   -0.2400
7      N7      0.5844   -4.4545   -0.2752 N.pl3    1 ZINC000053119602   -0.2500
8      C8      0.5735   -5.7057    0.4869 C.3      1 ZINC000053119602    0.0900
9      C9      0.8208   -4.3543   -1.5975 C.2      1 ZINC000053119602    0.0300
10     C10     0.7156   -3.0191   -1.9253 C.2      1 ZINC000053119602   -0.1100
11     C11     0.8855   -2.5174   -3.3296 C.3      1 ZINC000053119602    0.0100
12     C12    -0.4646   -2.5495   -4.0487 C.3      1 ZINC000053119602   -0.1400
13     C13     1.4110   -1.0809   -3.2970 C.3      1 ZINC000053119602   -0.1500
14     C14     1.8811   -3.4058   -4.0766 C.3      1 ZINC000053119602   -0.0600
15     C15     1.6189   -4.8679   -3.8619 C.ar     1 ZINC000053119602   -0.2000
16     C16     1.8653   -5.7855   -4.8656 C.ar     1 ZINC000053119602    0.1900
17     N17     1.6500   -7.0713   -4.6315 N.ar     1 ZINC000053119602   -0.5600
18     C18     1.2077   -7.4947   -3.4560 C.ar     1 ZINC000053119602    0.5600
19     N19     1.0150   -8.8514   -3.2547 N.pl3    1 ZINC000053119602   -0.6400
20     C20     1.3949   -9.7673   -4.2444 C.ar     1 ZINC000053119602    0.1700
21     C21     2.4975   -9.5051   -5.0467 C.ar     1 ZINC000053119602   -0.0900
22     C22     2.8717  -10.4075   -6.0224 C.ar     1 ZINC000053119602   -0.1000
23     C23     2.1455  -11.5778   -6.2011 C.ar     1 ZINC000053119602    0.0600
24     N24     2.5250  -12.4927   -7.1897 N.3      1 ZINC000053119602   -0.4800
25     C25     2.5729  -11.8508   -8.5110 C.3      1 ZINC000053119602    0.0300
26     C26     3.0482  -12.8672   -9.5516 C.3      1 ZINC000053119602    0.0000
27     N27     2.1261  -14.0102   -9.5766 N.4      1 ZINC000053119602   -0.3900
28     H28     1.1978  -13.6883   -9.8063 H        1 ZINC000053119602    0.4200
29     C29     2.5728  -14.9773  -10.5881 C.3      1 ZINC000053119602   -0.0500
30     C30     2.1077  -14.6557   -8.2573 C.3      1 ZINC000053119602    0.0000
31     C31     1.6246  -13.6542   -7.2060 C.3      1 ZINC000053119602    0.0200
32     C32     1.0431  -11.8402   -5.3984 C.ar     1 ZINC000053119602   -0.1400
33     C33     0.6721  -10.9401   -4.4192 C.ar     1 ZINC000053119602   -0.1200
34     N34     0.9456   -6.6495   -2.4676 N.ar     1 ZINC000053119602   -0.5500
35     C35     1.1199   -5.3502   -2.6408 C.ar     1 ZINC000053119602    0.3000
36     H36     0.8749    1.7478   -0.7873 H        1 ZINC000053119602    0.0700
37     H37     0.1645    1.4607    0.8193 H        1 ZINC000053119602    0.0600
38     H38     1.9192    1.7094    0.6536 H        1 ZINC000053119602    0.0800
39     H39     2.0456   -0.5810    0.3002 H        1 ZINC000053119602    0.4100
40     H40    -0.4341   -6.1215    0.4882 H        1 ZINC000053119602    0.0900
41     H41     1.2595   -6.4171    0.0271 H        1 ZINC000053119602    0.1000
42     H42     0.8869   -5.5094    1.5122 H        1 ZINC000053119602    0.1000
43     H43    -1.1737   -1.9136   -3.5187 H        1 ZINC000053119602    0.0700
44     H44    -0.3418   -2.1852   -5.0686 H        1 ZINC000053119602    0.0700
45     H45    -0.8402   -3.5725   -4.0710 H        1 ZINC000053119602    0.0500
46     H46     2.3142   -1.0381   -2.6883 H        1 ZINC000053119602    0.0600
47     H47     1.6409   -0.7549   -4.3114 H        1 ZINC000053119602    0.0700
48     H48     0.6524   -0.4261   -2.8681 H        1 ZINC000053119602    0.0700
49     H49     1.8167   -3.1887   -5.1428 H        1 ZINC000053119602    0.0900
50     H50     2.8887   -3.1738   -3.7316 H        1 ZINC000053119602    0.0900
51     H51     2.2284   -5.4582   -5.8287 H        1 ZINC000053119602    0.1800
52     H52     0.6170   -9.1674   -2.4285 H        1 ZINC000053119602    0.4300
53     H53     3.0622   -8.5950   -4.9077 H        1 ZINC000053119602    0.1400
54     H54     3.7288  -10.2032   -6.6468 H        1 ZINC000053119602    0.1300
55     H55     1.5782  -11.4946   -8.7785 H        1 ZINC000053119602    0.0700
56     H56     3.2653  -11.0095   -8.4817 H        1 ZINC000053119602    0.1300
57     H57     3.0709  -12.3970  -10.5347 H        1 ZINC000053119602    0.1400
58     H58     4.0486  -13.2130   -9.2912 H        1 ZINC000053119602    0.1400
59     H59     3.5758  -15.3249  -10.3405 H        1 ZINC000053119602    0.1200
60     H60     1.8887  -15.8257  -10.6069 H        1 ZINC000053119602    0.1200
61     H61     2.5855  -14.4991  -11.5675 H        1 ZINC000053119602    0.1200
62     H62     1.4330  -15.5115   -8.2810 H        1 ZINC000053119602    0.1400
63     H63     3.1128  -14.9924   -8.0036 H        1 ZINC000053119602    0.1400
64     H64     1.6250  -14.1285   -6.2246 H        1 ZINC000053119602    0.1300
65     H65     0.6142  -13.3277   -7.4520 H        1 ZINC000053119602    0.0700
66     H66     0.4783  -12.7502   -5.5373 H        1 ZINC000053119602    0.1300
67     H67    -0.1850  -11.1443   -3.7947 H        1 ZINC000053119602    0.1300
@<TRIPOS>BOND
1     1     2     1
2     1     36    1
3     1     37    1
4     1     38    1
5     2     3     am
6     2     39    1
7     3     4     2
8     3     5     1
9     5     10    1
10    5     6     2
11    6     7     1
12    7     8     1
13    7     9     1
14    8     40    1
15    8     41    1
16    8     42    1
17    9     35    1
18    9     10    2
19    10    11    1
20    11    12    1
21    11    13    1
22    11    14    1
23    12    43    1
24    12    44    1
25    12    45    1
26    13    46    1
27    13    47    1
28    13    48    1
29    14    15    1
30    14    49    1
31    14    50    1
32    15    35    ar
33    15    16    ar
34    16    17    ar
35    16    51    1
36    17    18    ar
37    18    19    1
38    18    34    ar
39    19    20    1
40    19    52    1
41    20    33    ar
42    20    21    ar
43    21    22    ar
44    21    53    1
45    22    23    ar
46    22    54    1
47    23    24    1
48    23    32    ar
49    24    31    1
50    24    25    1
51    25    26    1
52    25    55    1
53    25    56    1
54    26    27    1
55    26    57    1
56    26    58    1
57    27    28    1
58    27    29    1
59    27    30    1
60    29    59    1
61    29    60    1
62    29    61    1
63    30    31    1
64    30    62    1
65    30    63    1
66    31    64    1
67    31    65    1
68    32    33    ar
69    32    66    1
70    33    67    1
71    34    35    ar
@<TRIPOS>SUBSTRUCTURE
1   ZINC000053119602 1     RESIDUE    1   A     ZIN   1


@<TRIPOS>MOLECULE
CC1=NC2=C(C(=N1)NC3=NNC4=C3CN(C4(C)C)C(=O)NC(CN(C)C)C5=CC=CC=C5)SC=C2
66    70    1     0     0
SMALL
USER_CHARGES
@<TRIPOS>ATOM
1      C1     -0.8466    1.0806    0.4206 C.3      1 ZINC000043203531   -0.0800
2      C2     -1.2918   -0.3497    0.2554 C.ar     1 ZINC000043203531    0.3700
3      N3     -1.0675   -0.9551   -0.8970 N.ar     1 ZINC000043203531   -0.5200
4      C4     -1.4425   -2.2146   -1.0871 C.ar     1 ZINC000043203531    0.4800
5      N5     -1.2046   -2.8457   -2.2979 N.pl3    1 ZINC000043203531   -0.6100
6      C6     -0.5636   -2.1547   -3.3337 C.2      1 ZINC000043203531    0.3500
7      N7     -0.1357   -0.9157   -3.2842 N.2      1 ZINC000043203531   -0.2300
8      N8      0.4441   -0.6044   -4.5200 N.pl3    1 ZINC000043203531   -0.4400
9      C9      0.3508   -1.6957   -5.3131 C.2      1 ZINC000043203531    0.0900
10     C10    -0.2604   -2.6698   -4.6073 C.2      1 ZINC000043203531   -0.3000
11     C11    -0.3815   -3.9056   -5.4627 C.3      1 ZINC000043203531    0.1800
12     N12     0.2155   -3.5991   -6.7676 N.am     1 ZINC000043203531   -0.6100
13     C13     0.3149   -4.4280   -7.8257 C.2      1 ZINC000043203531    0.7300
14     O14     0.8365   -4.0416   -8.8538 O.2      1 ZINC000043203531   -0.5700
15     N15    -0.1640   -5.6852   -7.7442 N.am     1 ZINC000043203531   -0.7500
16     C16    -0.1662   -6.5465   -8.9292 C.3      1 ZINC000043203531    0.1800
17     H17     0.4804   -6.1149   -9.6933 H        1 ZINC000043203531    0.1300
18     C18    -1.5916   -6.6619   -9.4732 C.3      1 ZINC000043203531   -0.0200
19     N19    -2.0764   -5.3310   -9.8626 N.4      1 ZINC000043203531   -0.3900
20     H20    -1.9759   -4.6957   -9.0851 H        1 ZINC000043203531    0.4200
21     C21    -1.2914   -4.8381  -11.0023 C.3      1 ZINC000043203531   -0.0600
22     C22    -3.4923   -5.4179  -10.2442 C.3      1 ZINC000043203531   -0.0500
23     C23     0.3415   -7.9154   -8.5562 C.ar     1 ZINC000043203531   -0.1200
24     C24    -0.0380   -8.4905   -7.3578 C.ar     1 ZINC000043203531   -0.1100
25     C25     0.4278   -9.7462   -7.0156 C.ar     1 ZINC000043203531   -0.1100
26     C26     1.2726  -10.4271   -7.8720 C.ar     1 ZINC000043203531   -0.1000
27     C27     1.6514   -9.8525   -9.0708 C.ar     1 ZINC000043203531   -0.1100
28     C28     1.1823   -8.5985   -9.4150 C.ar     1 ZINC000043203531   -0.1000
29     C29     0.6856   -2.2111   -6.6900 C.3      1 ZINC000043203531    0.2600
30     C30    -0.0265   -1.3617   -7.7447 C.3      1 ZINC000043203531   -0.1600
31     C31     2.1982   -2.1615   -6.9147 C.3      1 ZINC000043203531   -0.1600
32     C32    -2.0840   -2.8964   -0.0403 C.ar     1 ZINC000043203531   -0.3100
33     S33    -2.7108   -4.5341    0.0758 S.3      1 ZINC000043203531    0.1200
34     C34    -3.2436   -4.2617    1.7264 C.2      1 ZINC000043203531   -0.1400
35     C35    -2.9541   -3.0301    2.1156 C.2      1 ZINC000043203531   -0.1200
36     C36    -2.3054   -2.2261    1.1652 C.ar     1 ZINC000043203531    0.2000
37     N37    -1.8811   -0.9452    1.2616 N.ar     1 ZINC000043203531   -0.5200
38     H38     0.1737    1.1016    0.8035 H        1 ZINC000043203531    0.0900
39     H39    -0.8831    1.5862   -0.5443 H        1 ZINC000043203531    0.0900
40     H40    -1.5084    1.5884    1.1222 H        1 ZINC000043203531    0.0900
41     H41    -1.4820   -3.7660   -2.4279 H        1 ZINC000043203531    0.4300
42     H42     0.8427    0.2454   -4.7646 H        1 ZINC000043203531    0.4500
43     H43     0.1536   -4.7326   -4.9960 H        1 ZINC000043203531    0.0800
44     H44    -1.4322   -4.1669   -5.5887 H        1 ZINC000043203531    0.0800
45     H45    -0.5072   -6.0197   -6.9008 H        1 ZINC000043203531    0.4100
46     H46    -1.5965   -7.3192  -10.3427 H        1 ZINC000043203531    0.1500
47     H47    -2.2424   -7.0744   -8.7022 H        1 ZINC000043203531    0.1400
48     H48    -1.4457   -5.4928  -11.8600 H        1 ZINC000043203531    0.1200
49     H49    -1.6122   -3.8273  -11.2544 H        1 ZINC000043203531    0.1200
50     H50    -0.2340   -4.8284  -10.7381 H        1 ZINC000043203531    0.1400
51     H51    -4.0747   -5.7837   -9.3985 H        1 ZINC000043203531    0.1200
52     H52    -3.8520   -4.4304  -10.5331 H        1 ZINC000043203531    0.1200
53     H53    -3.6007   -6.1042  -11.0840 H        1 ZINC000043203531    0.1300
54     H54    -0.6980   -7.9585   -6.6887 H        1 ZINC000043203531    0.1200
55     H55     0.1318  -10.1952   -6.0790 H        1 ZINC000043203531    0.1300
56     H56     1.6371  -11.4079   -7.6044 H        1 ZINC000043203531    0.1300
57     H57     2.3118  -10.3843   -9.7398 H        1 ZINC000043203531    0.1300
58     H58     1.4782   -8.1495  -10.3516 H        1 ZINC000043203531    0.1300
59     H59    -1.1016   -1.3881   -7.5672 H        1 ZINC000043203531    0.0600
60     H60     0.3270   -0.3326   -7.6817 H        1 ZINC000043203531    0.0800
61     H61     0.1879   -1.7594   -8.7367 H        1 ZINC000043203531    0.0800
62     H62     2.4327   -2.5664   -7.8992 H        1 ZINC000043203531    0.0900
63     H63     2.5406   -1.1284   -6.8558 H        1 ZINC000043203531    0.0700
64     H64     2.6988   -2.7545   -6.1493 H        1 ZINC000043203531    0.0600
65     H65    -3.7403   -4.9984    2.3404 H        1 ZINC000043203531    0.1800
66     H66    -3.2015   -2.6666    3.1020 H        1 ZINC000043203531    0.1600
@<TRIPOS>BOND
1     1     2     1
2     1     38    1
3     1     39    1
4     1     40    1
5     2     37    ar
6     2     3     ar
7     3     4     ar
8     4     5     1
9     4     32    ar
10    5     6     1
11    5     41    1
12    6     10    1
13    6     7     2
14    7     8     1
15    8     9     1
16    8     42    1
17    9     29    1
18    9     10    2
19    10    11    1
20    11    12    1
21    11    43    1
22    11    44    1
23    12    13    am
24    12    29    1
25    13    14    2
26    13    15    am
27    15    16    1
28    15    45    1
29    16    17    1
30    16    18    1
31    16    23    1
32    18    19    1
33    18    46    1
34    18    47    1
35    19    20    1
36    19    21    1
37    19    22    1
38    21    48    1
39    21    49    1
40    21    50    1
41    22    51    1
42    22    52    1
43    22    53    1
44    23    28    ar
45    23    24    ar
46    24    25    ar
47    24    54    1
48    25    26    ar
49    25    55    1
50    26    27    ar
51    26    56    1
52    27    28    ar
53    27    57    1
54    28    58    1
55    29    30    1
56    29    31    1
57    30    59    1
58    30    60    1
59    30    61    1
60    31    62    1
61    31    63    1
62    31    64    1
63    32    36    ar
64    32    33    1
65    33    34    1
66    34    35    2
67    34    65    1
68    35    36    1
69    35    66    1
70    36    37    ar
@<TRIPOS>SUBSTRUCTURE
1   ZINC000043203531 1     RESIDUE    1   A     ZIN   1


@<TRIPOS>MOLECULE
CC12C(C(CC(O1)N3C4=CC=CC=C4C5=C6C(=C7C8=CC=CC=C8N2C7=C53)CNC6=O)NC)OC
  62   69    0    0    0
SMALL
USER_CHARGES
NO_NAME
@<TRIPOS>ATOM
    1 C1       -0.9661     1.0031     0.4683 C.3    1 <0>      -0.0500
    2 N2        0.0189     0.0032     0.0346 N.4    1 <0>      -0.5200
    3 H3       -0.4575    -0.7682    -0.4082 H      1 <0>       0.4300
    4 H4        0.6591     0.4245    -0.6217 H      1 <0>       0.4300
    5 C5        0.7653    -0.4868     1.2011 C.3    1 <0>      -0.0100
    6 H6        0.4030     0.0058     2.1034 H      1 <0>       0.1600
    7 C7        2.2595    -0.1983     1.0181 C.3    1 <0>      -0.1800
    8 C8        2.7619    -0.9023    -0.2361 C.3    1 <0>       0.3000
    9 H9        3.8508    -0.8586    -0.2138 H      1 <0>       0.1600
   10 O10       2.4012    -2.2646    -0.2735 O.3    1 <0>      -0.3200
   11 C11       1.0934    -2.6719     0.0586 C.3    1 <0>       0.3300
   12 C12       1.1521    -4.1700     0.3640 C.3    1 <0>      -0.1700
   13 C13       0.5850    -2.0035     1.3313 C.3    1 <0>       0.0400
   14 H14       1.1399    -2.3845     2.1886 H      1 <0>       0.1400
   15 O15      -0.8050    -2.2900     1.4976 O.3    1 <0>      -0.3600
   16 C16      -1.2299    -2.3358     2.8612 C.3    1 <0>       0.0200
   17 N17       0.1539    -2.4960    -1.0500 N.pl3  1 <0>      -0.5100
   18 C18      -0.9555    -3.2665    -1.3051 C.ar   1 <0>       0.1500
   19 C19      -1.5981    -2.7707    -2.4611 C.ar   1 <0>      -0.1000
   20 C20      -2.7601    -3.3595    -2.9591 C.ar   1 <0>      -0.0500
   21 C21      -3.2512    -4.4544    -2.2672 C.ar   1 <0>      -0.1300
   22 C22      -2.6226    -4.9436    -1.1358 C.ar   1 <0>      -0.0700
   23 C23      -1.4695    -4.3706    -0.6261 C.ar   1 <0>      -0.1300
   24 C24      -0.8079    -1.6281    -2.9233 C.ar   1 <0>      -0.0400
   25 C25       0.2584    -1.5088    -2.0185 C.ar   1 <0>       0.0800
   26 C26       1.2121    -0.4989    -2.1905 C.ar   1 <0>       0.0500
   27 C27       1.1050     0.3895    -3.2623 C.ar   1 <0>       0.0100
   28 C28       2.2461     1.2937    -3.1535 C.ar   1 <0>      -0.1100
   29 C29       2.6635     2.3660    -3.9439 C.ar   1 <0>      -0.0300
   30 C30       3.8158     3.0230    -3.5467 C.ar   1 <0>      -0.1400
   31 C31       4.5234     2.6394    -2.4210 C.ar   1 <0>      -0.0600
   32 C32       4.1270     1.5772    -1.6258 C.ar   1 <0>      -0.1400
   33 C33       2.9702     0.8975    -2.0046 C.ar   1 <0>       0.1300
   34 N34       2.3272    -0.1879    -1.4373 N.pl3  1 <0>      -0.5400
   35 C35       0.0235     0.2714    -4.1666 C.ar   1 <0>      -0.1200
   36 C36      -0.9183    -0.7356    -3.9848 C.ar   1 <0>      -0.0300
   37 C37      -1.9244    -0.5868    -5.0999 C.3    1 <0>       0.1400
   38 N38      -1.4787     0.5585    -5.9015 N.am   1 <0>      -0.7200
   39 C39      -0.3518     1.0487    -5.3578 C.2    1 <0>       0.5600
   40 O40       0.2696     2.0011    -5.7892 O.2    1 <0>      -0.5100
   41 H41      -0.4515     1.8364     0.9466 H      1 <0>       0.1200
   42 H42      -1.5200     1.3667    -0.3973 H      1 <0>       0.1300
   43 H43      -1.6578     0.5480     1.1772 H      1 <0>       0.1300
   44 H44       2.4126     0.8763     0.9178 H      1 <0>       0.1200
   45 H45       2.8092    -0.5644     1.8853 H      1 <0>       0.1500
   46 H46       2.0849    -4.3996     0.8789 H      1 <0>       0.1000
   47 H47       0.3096    -4.4447     0.9987 H      1 <0>       0.1000
   48 H48       1.1035    -4.7330    -0.5681 H      1 <0>       0.0900
   49 H49      -2.2962    -2.5584     2.9022 H      1 <0>       0.1100
   50 H50      -0.6761    -3.1126     3.3884 H      1 <0>       0.0600
   51 H51      -1.0416    -1.3715     3.3331 H      1 <0>       0.0500
   52 H52      -3.2535    -2.9798    -3.8415 H      1 <0>       0.1400
   53 H53      -4.1490    -4.9395    -2.6206 H      1 <0>       0.1300
   54 H54      -3.0458    -5.8006    -0.6330 H      1 <0>       0.1300
   55 H55      -0.9887    -4.7625     0.2580 H      1 <0>       0.1400
   56 H56       2.1142     2.6684    -4.8232 H      1 <0>       0.1600
   57 H57       4.1724     3.8577    -4.1318 H      1 <0>       0.1400
   58 H58       5.4152     3.1868    -2.1538 H      1 <0>       0.1400
   59 H59       4.6894     1.2880    -0.7504 H      1 <0>       0.1400
   60 H60      -1.9419    -1.4886    -5.7118 H      1 <0>       0.1100
   61 H61      -2.9148    -0.3933    -4.6879 H      1 <0>       0.1100
   62 H62      -1.9231     0.9040    -6.6914 H      1 <0>       0.4300
@<TRIPOS>BOND
   1    1    2 1
   2    1   41 1
   3    1   42 1
   4    1   43 1
   5    2    3 1
   6    2    4 1
   7    2    5 1
   8    5    6 1
   9    5   13 1
  10    5    7 1
  11    7    8 1
  12    7   44 1
  13    7   45 1
  14    8    9 1
  15    8   34 1
  16    8   10 1
  17   10   11 1
  18   11   12 1
  19   11   13 1
  20   11   17 1
  21   12   46 1
  22   12   47 1
  23   12   48 1
  24   13   14 1
  25   13   15 1
  26   15   16 1
  27   16   49 1
  28   16   50 1
  29   16   51 1
  30   17   25 1
  31   17   18 1
  32   18   23 ar
  33   18   19 ar
  34   19   20 ar
  35   19   24 1
  36   20   21 ar
  37   20   52 1
  38   21   22 ar
  39   21   53 1
  40   22   23 ar
  41   22   54 1
  42   23   55 1
  43   24   36 ar
  44   24   25 ar
  45   25   26 ar
  46   26   34 1
  47   26   27 ar
  48   27   28 1
  49   27   35 ar
  50   28   33 ar
  51   28   29 ar
  52   29   30 ar
  53   29   56 1
  54   30   31 ar
  55   30   57 1
  56   31   32 ar
  57   31   58 1
  58   32   33 ar
  59   32   59 1
  60   33   34 1
  61   35   39 1
  62   35   36 ar
  63   36   37 1
  64   37   38 1
  65   37   60 1
  66   37   61 1
  67   38   39 am
  68   38   62 1
  69   39   40 2


@<TRIPOS>MOLECULE
CC12C(C(CC(O1)N3C4=CC=CC=C4C5=C6C(=C7C8=CC=CC=C8N2C7=C53)CNC6=O)NC)OC
  62   69    0    0    0
SMALL
USER_CHARGES
NO_NAME
@<TRIPOS>ATOM
    1 C1       -0.9661     1.0031     0.4683 C.3    1 <0>      -0.0500
    2 N2        0.0189     0.0032     0.0346 N.4    1 <0>      -0.5200
    3 H3       -0.4575    -0.7682    -0.4082 H      1 <0>       0.4300
    4 H4        0.6591     0.4245    -0.6217 H      1 <0>       0.4300
    5 C5        0.7653    -0.4868     1.2011 C.3    1 <0>      -0.0100
    6 H6        0.4030     0.0058     2.1034 H      1 <0>       0.1600
    7 C7        2.2595    -0.1983     1.0181 C.3    1 <0>      -0.1800
    8 C8        2.7619    -0.9023    -0.2361 C.3    1 <0>       0.3000
    9 H9        3.8508    -0.8586    -0.2138 H      1 <0>       0.1600
   10 O10       2.4012    -2.2646    -0.2735 O.3    1 <0>      -0.3200
   11 C11       1.0934    -2.6719     0.0586 C.3    1 <0>       0.3300
   12 C12       1.1521    -4.1700     0.3640 C.3    1 <0>      -0.1700
   13 C13       0.5850    -2.0035     1.3313 C.3    1 <0>       0.0400
   14 H14       1.1399    -2.3845     2.1886 H      1 <0>       0.1400
   15 O15      -0.8050    -2.2900     1.4976 O.3    1 <0>      -0.3600
   16 C16      -1.2299    -2.3358     2.8612 C.3    1 <0>       0.0200
   17 N17       0.1539    -2.4960    -1.0500 N.pl3  1 <0>      -0.5100
   18 C18      -0.9555    -3.2665    -1.3051 C.ar   1 <0>       0.1500
   19 C19      -1.5981    -2.7707    -2.4611 C.ar   1 <0>      -0.1000
   20 C20      -2.7601    -3.3595    -2.9591 C.ar   1 <0>      -0.0500
   21 C21      -3.2512    -4.4544    -2.2672 C.ar   1 <0>      -0.1300
   22 C22      -2.6226    -4.9436    -1.1358 C.ar   1 <0>      -0.0700
   23 C23      -1.4695    -4.3706    -0.6261 C.ar   1 <0>      -0.1300
   24 C24      -0.8079    -1.6281    -2.9233 C.ar   1 <0>      -0.0400
   25 C25       0.2584    -1.5088    -2.0185 C.ar   1 <0>       0.0800
   26 C26       1.2121    -0.4989    -2.1905 C.ar   1 <0>       0.0500
   27 C27       1.1050     0.3895    -3.2623 C.ar   1 <0>       0.0100
   28 C28       2.2461     1.2937    -3.1535 C.ar   1 <0>      -0.1100
   29 C29       2.6635     2.3660    -3.9439 C.ar   1 <0>      -0.0300
   30 C30       3.8158     3.0230    -3.5467 C.ar   1 <0>      -0.1400
   31 C31       4.5234     2.6394    -2.4210 C.ar   1 <0>      -0.0600
   32 C32       4.1270     1.5772    -1.6258 C.ar   1 <0>      -0.1400
   33 C33       2.9702     0.8975    -2.0046 C.ar   1 <0>       0.1300
   34 N34       2.3272    -0.1879    -1.4373 N.pl3  1 <0>      -0.5400
   35 C35       0.0235     0.2714    -4.1666 C.ar   1 <0>      -0.1200
   36 C36      -0.9183    -0.7356    -3.9848 C.ar   1 <0>      -0.0300
   37 C37      -1.9244    -0.5868    -5.0999 C.3    1 <0>       0.1400
   38 N38      -1.4787     0.5585    -5.9015 N.am   1 <0>      -0.7200
   39 C39      -0.3518     1.0487    -5.3578 C.2    1 <0>       0.5600
   40 O40       0.2696     2.0011    -5.7892 O.2    1 <0>      -0.5100
   41 H41      -0.4515     1.8364     0.9466 H      1 <0>       0.1200
   42 H42      -1.5200     1.3667    -0.3973 H      1 <0>       0.1300
   43 H43      -1.6578     0.5480     1.1772 H      1 <0>       0.1300
   44 H44       2.4126     0.8763     0.9178 H      1 <0>       0.1200
   45 H45       2.8092    -0.5644     1.8853 H      1 <0>       0.1500
   46 H46       2.0849    -4.3996     0.8789 H      1 <0>       0.1000
   47 H47       0.3096    -4.4447     0.9987 H      1 <0>       0.1000
   48 H48       1.1035    -4.7330    -0.5681 H      1 <0>       0.0900
   49 H49      -2.2962    -2.5584     2.9022 H      1 <0>       0.1100
   50 H50      -0.6761    -3.1126     3.3884 H      1 <0>       0.0600
   51 H51      -1.0416    -1.3715     3.3331 H      1 <0>       0.0500
   52 H52      -3.2535    -2.9798    -3.8415 H      1 <0>       0.1400
   53 H53      -4.1490    -4.9395    -2.6206 H      1 <0>       0.1300
   54 H54      -3.0458    -5.8006    -0.6330 H      1 <0>       0.1300
   55 H55      -0.9887    -4.7625     0.2580 H      1 <0>       0.1400
   56 H56       2.1142     2.6684    -4.8232 H      1 <0>       0.1600
   57 H57       4.1724     3.8577    -4.1318 H      1 <0>       0.1400
   58 H58       5.4152     3.1868    -2.1538 H      1 <0>       0.1400
   59 H59       4.6894     1.2880    -0.7504 H      1 <0>       0.1400
   60 H60      -1.9419    -1.4886    -5.7118 H      1 <0>       0.1100
   61 H61      -2.9148    -0.3933    -4.6879 H      1 <0>       0.1100
   62 H62      -1.9231     0.9040    -6.6914 H      1 <0>       0.4300
@<TRIPOS>BOND
   1    1    2 1
   2    1   41 1
   3    1   42 1
   4    1   43 1
   5    2    3 1
   6    2    4 1
   7    2    5 1
   8    5    6 1
   9    5   13 1
  10    5    7 1
  11    7    8 1
  12    7   44 1
  13    7   45 1
  14    8    9 1
  15    8   34 1
  16    8   10 1
  17   10   11 1
  18   11   12 1
  19   11   13 1
  20   11   17 1
  21   12   46 1
  22   12   47 1
  23   12   48 1
  24   13   14 1
  25   13   15 1
  26   15   16 1
  27   16   49 1
  28   16   50 1
  29   16   51 1
  30   17   25 1
  31   17   18 1
  32   18   23 ar
  33   18   19 ar
  34   19   20 ar
  35   19   24 1
  36   20   21 ar
  37   20   52 1
  38   21   22 ar
  39   21   53 1
  40   22   23 ar
  41   22   54 1
  42   23   55 1
  43   24   36 ar
  44   24   25 ar
  45   25   26 ar
  46   26   34 1
  47   26   27 ar
  48   27   28 1
  49   27   35 ar
  50   28   33 ar
  51   28   29 ar
  52   29   30 ar
  53   29   56 1
  54   30   31 ar
  55   30   57 1
  56   31   32 ar
  57   31   58 1
  58   32   33 ar
  59   32   59 1
  60   33   34 1
  61   35   39 1
  62   35   36 ar
  63   36   37 1
  64   37   38 1
  65   37   60 1
  66   37   61 1
  67   38   39 am
  68   38   62 1
  69   39   40 2


@<TRIPOS>MOLECULE
CC12C(C(CC(O1)N3C4=CC=CC=C4C5=C6C(=C7C8=CC=CC=C8N2C7=C53)CNC6=O)NC)OC
  62   69    0    0    0
SMALL
USER_CHARGES
NO_NAME
@<TRIPOS>ATOM
    1 C1       -0.9661     1.0031     0.4683 C.3    1 <0>      -0.0500
    2 N2        0.0189     0.0032     0.0346 N.4    1 <0>      -0.5200
    3 H3       -0.4575    -0.7682    -0.4082 H      1 <0>       0.4300
    4 H4        0.6591     0.4245    -0.6217 H      1 <0>       0.4300
    5 C5        0.7653    -0.4868     1.2011 C.3    1 <0>      -0.0100
    6 H6        0.4030     0.0058     2.1034 H      1 <0>       0.1600
    7 C7        2.2595    -0.1983     1.0181 C.3    1 <0>      -0.1800
    8 C8        2.7619    -0.9023    -0.2361 C.3    1 <0>       0.3000
    9 H9        3.8508    -0.8586    -0.2138 H      1 <0>       0.1600
   10 O10       2.4012    -2.2646    -0.2735 O.3    1 <0>      -0.3200
   11 C11       1.0934    -2.6719     0.0586 C.3    1 <0>       0.3300
   12 C12       1.1521    -4.1700     0.3640 C.3    1 <0>      -0.1700
   13 C13       0.5850    -2.0035     1.3313 C.3    1 <0>       0.0400
   14 H14       1.1399    -2.3845     2.1886 H      1 <0>       0.1400
   15 O15      -0.8050    -2.2900     1.4976 O.3    1 <0>      -0.3600
   16 C16      -1.2299    -2.3358     2.8612 C.3    1 <0>       0.0200
   17 N17       0.1539    -2.4960    -1.0500 N.pl3  1 <0>      -0.5100
   18 C18      -0.9555    -3.2665    -1.3051 C.ar   1 <0>       0.1500
   19 C19      -1.5981    -2.7707    -2.4611 C.ar   1 <0>      -0.1000
   20 C20      -2.7601    -3.3595    -2.9591 C.ar   1 <0>      -0.0500
   21 C21      -3.2512    -4.4544    -2.2672 C.ar   1 <0>      -0.1300
   22 C22      -2.6226    -4.9436    -1.1358 C.ar   1 <0>      -0.0700
   23 C23      -1.4695    -4.3706    -0.6261 C.ar   1 <0>      -0.1300
   24 C24      -0.8079    -1.6281    -2.9233 C.ar   1 <0>      -0.0400
   25 C25       0.2584    -1.5088    -2.0185 C.ar   1 <0>       0.0800
   26 C26       1.2121    -0.4989    -2.1905 C.ar   1 <0>       0.0500
   27 C27       1.1050     0.3895    -3.2623 C.ar   1 <0>       0.0100
   28 C28       2.2461     1.2937    -3.1535 C.ar   1 <0>      -0.1100
   29 C29       2.6635     2.3660    -3.9439 C.ar   1 <0>      -0.0300
   30 C30       3.8158     3.0230    -3.5467 C.ar   1 <0>      -0.1400
   31 C31       4.5234     2.6394    -2.4210 C.ar   1 <0>      -0.0600
   32 C32       4.1270     1.5772    -1.6258 C.ar   1 <0>      -0.1400
   33 C33       2.9702     0.8975    -2.0046 C.ar   1 <0>       0.1300
   34 N34       2.3272    -0.1879    -1.4373 N.pl3  1 <0>      -0.5400
   35 C35       0.0235     0.2714    -4.1666 C.ar   1 <0>      -0.1200
   36 C36      -0.9183    -0.7356    -3.9848 C.ar   1 <0>      -0.0300
   37 C37      -1.9244    -0.5868    -5.0999 C.3    1 <0>       0.1400
   38 N38      -1.4787     0.5585    -5.9015 N.am   1 <0>      -0.7200
   39 C39      -0.3518     1.0487    -5.3578 C.2    1 <0>       0.5600
   40 O40       0.2696     2.0011    -5.7892 O.2    1 <0>      -0.5100
   41 H41      -0.4515     1.8364     0.9466 H      1 <0>       0.1200
   42 H42      -1.5200     1.3667    -0.3973 H      1 <0>       0.1300
   43 H43      -1.6578     0.5480     1.1772 H      1 <0>       0.1300
   44 H44       2.4126     0.8763     0.9178 H      1 <0>       0.1200
   45 H45       2.8092    -0.5644     1.8853 H      1 <0>       0.1500
   46 H46       2.0849    -4.3996     0.8789 H      1 <0>       0.1000
   47 H47       0.3096    -4.4447     0.9987 H      1 <0>       0.1000
   48 H48       1.1035    -4.7330    -0.5681 H      1 <0>       0.0900
   49 H49      -2.2962    -2.5584     2.9022 H      1 <0>       0.1100
   50 H50      -0.6761    -3.1126     3.3884 H      1 <0>       0.0600
   51 H51      -1.0416    -1.3715     3.3331 H      1 <0>       0.0500
   52 H52      -3.2535    -2.9798    -3.8415 H      1 <0>       0.1400
   53 H53      -4.1490    -4.9395    -2.6206 H      1 <0>       0.1300
   54 H54      -3.0458    -5.8006    -0.6330 H      1 <0>       0.1300
   55 H55      -0.9887    -4.7625     0.2580 H      1 <0>       0.1400
   56 H56       2.1142     2.6684    -4.8232 H      1 <0>       0.1600
   57 H57       4.1724     3.8577    -4.1318 H      1 <0>       0.1400
   58 H58       5.4152     3.1868    -2.1538 H      1 <0>       0.1400
   59 H59       4.6894     1.2880    -0.7504 H      1 <0>       0.1400
   60 H60      -1.9419    -1.4886    -5.7118 H      1 <0>       0.1100
   61 H61      -2.9148    -0.3933    -4.6879 H      1 <0>       0.1100
   62 H62      -1.9231     0.9040    -6.6914 H      1 <0>       0.4300
@<TRIPOS>BOND
   1    1    2 1
   2    1   41 1
   3    1   42 1
   4    1   43 1
   5    2    3 1
   6    2    4 1
   7    2    5 1
   8    5    6 1
   9    5   13 1
  10    5    7 1
  11    7    8 1
  12    7   44 1
  13    7   45 1
  14    8    9 1
  15    8   34 1
  16    8   10 1
  17   10   11 1
  18   11   12 1
  19   11   13 1
  20   11   17 1
  21   12   46 1
  22   12   47 1
  23   12   48 1
  24   13   14 1
  25   13   15 1
  26   15   16 1
  27   16   49 1
  28   16   50 1
  29   16   51 1
  30   17   25 1
  31   17   18 1
  32   18   23 ar
  33   18   19 ar
  34   19   20 ar
  35   19   24 1
  36   20   21 ar
  37   20   52 1
  38   21   22 ar
  39   21   53 1
  40   22   23 ar
  41   22   54 1
  42   23   55 1
  43   24   36 ar
  44   24   25 ar
  45   25   26 ar
  46   26   34 1
  47   26   27 ar
  48   27   28 1
  49   27   35 ar
  50   28   33 ar
  51   28   29 ar
  52   29   30 ar
  53   29   56 1
  54   30   31 ar
  55   30   57 1
  56   31   32 ar
  57   31   58 1
  58   32   33 ar
  59   32   59 1
  60   33   34 1
  61   35   39 1
  62   35   36 ar
  63   36   37 1
  64   37   38 1
  65   37   60 1
  66   37   61 1
  67   38   39 am
  68   38   62 1
  69   39   40 2


@<TRIPOS>MOLECULE
CCCCCC=CC=C1C(C=CC1=O)CC=CCCCC(=O)O
  50   50    0    0    0
SMALL
USER_CHARGES
NO_NAME
@<TRIPOS>ATOM
    1 C1        0.9601     1.3661     0.6123 C.3    1 <0>      -0.1500
    2 C2        0.9867    -0.1628     0.5600 C.3    1 <0>      -0.1300
    3 C3        1.4515    -0.6177    -0.8249 C.3    1 <0>      -0.1200
    4 C4        1.4780    -2.1466    -0.8772 C.3    1 <0>      -0.1200
    5 C5        1.9429    -2.6015    -2.2621 C.3    1 <0>      -0.1000
    6 C6        1.9690    -4.1074    -2.3137 C.2    1 <0>      -0.1200
    7 C7        1.2918    -4.7547    -3.2650 C.2    1 <0>      -0.1600
    8 C8        1.3172    -6.2159    -3.3151 C.2    1 <0>      -0.0100
    9 C9        0.6304    -6.8723    -4.2798 C.2    1 <0>      -0.2200
   10 C10      -0.1810    -6.2874    -5.3520 C.2    1 <0>       0.4100
   11 O11      -0.3645    -5.0983    -5.5426 O.2    1 <0>      -0.4500
   12 C12      -0.7332    -7.3845    -6.1561 C.2    1 <0>      -0.2400
   13 C13      -0.3488    -8.5636    -5.6929 C.2    1 <0>      -0.0600
   14 C14       0.5392    -8.3689    -4.4892 C.3    1 <0>      -0.0300
   15 H15       0.0924    -8.8381    -3.6126 H      1 <0>       0.1000
   16 C16       1.9250    -8.9605    -4.7547 C.3    1 <0>      -0.0800
   17 C17       1.8159   -10.4581    -4.8825 C.2    1 <0>      -0.1800
   18 C18       2.3179   -11.0644    -5.9296 C.2    1 <0>      -0.1300
   19 C19       3.1607   -10.2949    -6.9138 C.3    1 <0>      -0.1100
   20 C20       4.5042   -11.0033    -7.0982 C.3    1 <0>      -0.0900
   21 C21       5.3598   -10.2221    -8.0975 C.3    1 <0>      -0.1800
   22 C22       6.6831   -10.9199    -8.2792 C.2    1 <0>       0.4900
   23 O23       6.9199   -11.9469    -7.6662 O.co2  1 <0>      -0.7000
   24 O24       7.5168   -10.4574    -9.0391 O.co2  1 <0>      -0.7100
   25 H25       1.9604     1.7536     0.4193 H      1 <0>       0.0500
   26 H26       0.2720     1.7436    -0.1441 H      1 <0>       0.0500
   27 H27       0.6290     1.6901     1.5989 H      1 <0>       0.0500
   28 H28       1.6747    -0.5404     1.3163 H      1 <0>       0.0600
   29 H29      -0.0137    -0.5504     0.7529 H      1 <0>       0.0600
   30 H30       0.7634    -0.2402    -1.5813 H      1 <0>       0.0600
   31 H31       2.4518    -0.2301    -1.0179 H      1 <0>       0.0600
   32 H32       2.1661    -2.5241    -0.1209 H      1 <0>       0.0600
   33 H33       0.4777    -2.5342    -0.6843 H      1 <0>       0.0600
   34 H34       1.2548    -2.2240    -3.0185 H      1 <0>       0.0700
   35 H35       2.9432    -2.2139    -2.4551 H      1 <0>       0.0800
   36 H36       2.5356    -4.6630    -1.5811 H      1 <0>       0.1100
   37 H37       0.7253    -4.1990    -3.9976 H      1 <0>       0.1400
   38 H38       1.8837    -6.7715    -2.5825 H      1 <0>       0.1300
   39 H39      -1.3719    -7.2472    -7.0161 H      1 <0>       0.1400
   40 H40      -0.6249    -9.5186    -6.1150 H      1 <0>       0.1500
   41 H41       2.3263    -8.5452    -5.6791 H      1 <0>       0.0800
   42 H42       2.5900    -8.7139    -3.9269 H      1 <0>       0.0700
   43 H43       1.3238   -11.0314    -4.1108 H      1 <0>       0.1100
   44 H44       2.1279   -12.1158    -6.0875 H      1 <0>       0.1100
   45 H45       2.6433   -10.2420    -7.8717 H      1 <0>       0.0600
   46 H46       3.3304    -9.2865    -6.5364 H      1 <0>       0.0700
   47 H47       5.0215   -11.0562    -6.1403 H      1 <0>       0.0600
   48 H48       4.3344   -12.0117    -7.4757 H      1 <0>       0.0600
   49 H49       4.8424   -10.1692    -9.0554 H      1 <0>       0.0600
   50 H50       5.5295    -9.2137    -7.7201 H      1 <0>       0.0500
@<TRIPOS>BOND
   1    1    2 1
   2    1   25 1
   3    1   26 1
   4    1   27 1
   5    2    3 1
   6    2   28 1
   7    2   29 1
   8    3    4 1
   9    3   30 1
  10    3   31 1
  11    4    5 1
  12    4   32 1
  13    4   33 1
  14    5    6 1
  15    5   34 1
  16    5   35 1
  17    6    7 2
  18    6   36 1
  19    7    8 1
  20    7   37 1
  21    8    9 2
  22    8   38 1
  23    9   14 1
  24    9   10 1
  25   10   11 2
  26   10   12 1
  27   12   13 2
  28   12   39 1
  29   13   14 1
  30   13   40 1
  31   14   15 1
  32   14   16 1
  33   16   17 1
  34   16   41 1
  35   16   42 1
  36   17   18 2
  37   17   43 1
  38   18   19 1
  39   18   44 1
  40   19   20 1
  41   19   45 1
  42   19   46 1
  43   20   21 1
  44   20   47 1
  45   20   48 1
  46   21   22 1
  47   21   49 1
  48   21   50 1
  49   22   23 ar
  50   22   24 ar


@<TRIPOS>MOLECULE
CCN(CC)CCOC1=CC=C(C=C1)NC2=NC=C3C=C(C(=O)N(C3=N2)C)C4=C(C=CC=C4Cl)Cl
63    66    1     0     0
SMALL
USER_CHARGES
@<TRIPOS>ATOM
1      C1     -0.1174    1.6074   -0.6952 C.3      1 ZINC000001486219   -0.1900
2      C2     -0.0830    0.0900   -0.5022 C.3      1 ZINC000001486219   -0.0200
3      N3     -1.4294   -0.3915   -0.1656 N.4      1 ZINC000001486219   -0.3900
4      H4     -1.7778    0.1158    0.6340 H        1 ZINC000001486219    0.4300
5      C5     -2.3260   -0.1781   -1.3095 C.3      1 ZINC000001486219   -0.0100
6      C6     -3.7570   -0.5447   -0.9112 C.3      1 ZINC000001486219   -0.1900
7      C7     -1.3719   -1.8248    0.1508 C.3      1 ZINC000001486219   -0.0100
8      C8     -0.5388   -2.0346    1.4168 C.3      1 ZINC000001486219    0.0300
9      O9     -1.2007   -1.4283    2.5287 O.3      1 ZINC000001486219   -0.3300
10     C10    -0.5884   -1.5243    3.7390 C.ar     1 ZINC000001486219    0.1000
11     C11     0.6268   -2.1838    3.8508 C.ar     1 ZINC000001486219   -0.1800
12     C12     1.2490   -2.2822    5.0796 C.ar     1 ZINC000001486219   -0.0700
13     C13     0.6581   -1.7203    6.2036 C.ar     1 ZINC000001486219    0.1400
14     N14     1.2885   -1.8192    7.4500 N.pl3    1 ZINC000001486219   -0.6300
15     C15     2.6675   -1.8051    7.5295 C.ar     1 ZINC000001486219    0.6000
16     N16     3.3700   -1.5839    6.4237 N.ar     1 ZINC000001486219   -0.5800
17     C17     4.6894   -1.5602    6.4458 C.ar     1 ZINC000001486219    0.2600
18     C18     5.3445   -1.7746    7.6677 C.ar     1 ZINC000001486219   -0.2700
19     C19     6.7553   -1.7607    7.7546 C.2      1 ZINC000001486219    0.0200
20     C20     7.3476   -1.9748    8.9703 C.2      1 ZINC000001486219   -0.1500
21     C21     8.8239   -1.9660    9.0945 C.ar     1 ZINC000001486219   -0.0200
22     C22     9.5484   -3.1466    8.9260 C.ar     1 ZINC000001486219   -0.0100
23     Cl23    8.7219   -4.6312    8.5702 Cl       1 ZINC000001486219   -0.0500
24     C24    10.9245   -3.1314    9.0426 C.ar     1 ZINC000001486219   -0.1100
25     C25    11.5846   -1.9493    9.3262 C.ar     1 ZINC000001486219   -0.0800
26     C26    10.8724   -0.7755    9.4948 C.ar     1 ZINC000001486219   -0.1000
27     C27     9.4964   -0.7758    9.3747 C.ar     1 ZINC000001486219   -0.0100
28     Cl28    8.6044    0.6983    9.5866 Cl       1 ZINC000001486219   -0.0500
29     C29     6.5086   -2.2123   10.1470 C.2      1 ZINC000001486219    0.5600
30     O30     7.0273   -2.4037   11.2324 O.2      1 ZINC000001486219   -0.4900
31     N31     5.1664   -2.2196   10.0352 N.am     1 ZINC000001486219   -0.5100
32     C32     4.3413   -2.4582   11.2220 C.3      1 ZINC000001486219    0.0700
33     C33     4.5640   -2.0064    8.8210 C.ar     1 ZINC000001486219    0.4700
34     N34     3.2407   -2.0072    8.7061 N.ar     1 ZINC000001486219   -0.5900
35     C35    -0.5583   -1.0598    6.0909 C.ar     1 ZINC000001486219   -0.1000
36     C36    -1.1767   -0.9578    4.8603 C.ar     1 ZINC000001486219   -0.1200
37     H37     0.8969    1.9779   -0.8434 H        1 ZINC000001486219    0.1100
38     H38    -0.7237    1.8490   -1.5682 H        1 ZINC000001486219    0.0800
39     H39    -0.5500    2.0763    0.1886 H        1 ZINC000001486219    0.0800
40     H40     0.2533   -0.3858   -1.4234 H        1 ZINC000001486219    0.1300
41     H41     0.6043   -0.1579    0.3066 H        1 ZINC000001486219    0.1300
42     H42    -2.2893    0.8692   -1.6095 H        1 ZINC000001486219    0.1300
43     H43    -2.0084   -0.8059   -2.1421 H        1 ZINC000001486219    0.1300
44     H44    -3.8153   -1.6142   -0.7092 H        1 ZINC000001486219    0.0800
45     H45    -4.0384    0.0100   -0.0161 H        1 ZINC000001486219    0.0800
46     H46    -4.4368   -0.2910   -1.7246 H        1 ZINC000001486219    0.1100
47     H47    -2.3817   -2.2017    0.3138 H        1 ZINC000001486219    0.1400
48     H48    -0.9132   -2.3621   -0.6792 H        1 ZINC000001486219    0.1500
49     H49    -0.4216   -3.1024    1.6019 H        1 ZINC000001486219    0.1100
50     H50     0.4426   -1.5789    1.2856 H        1 ZINC000001486219    0.0900
51     H51     1.0863   -2.6208    2.9765 H        1 ZINC000001486219    0.1300
52     H52     2.1948   -2.7963    5.1666 H        1 ZINC000001486219    0.1400
53     H53     0.7569   -1.8976    8.2575 H        1 ZINC000001486219    0.4300
54     H54     5.2529   -1.3801    5.5422 H        1 ZINC000001486219    0.1900
55     H55     7.3570   -1.5841    6.8753 H        1 ZINC000001486219    0.1500
56     H56    11.4865   -4.0444    8.9125 H        1 ZINC000001486219    0.1500
57     H57    12.6608   -1.9428    9.4166 H        1 ZINC000001486219    0.1500
58     H58    11.3937    0.1440    9.7163 H        1 ZINC000001486219    0.1500
59     H59     4.9855   -2.6062   12.0887 H        1 ZINC000001486219    0.1000
60     H60     3.6938   -1.5982   11.3933 H        1 ZINC000001486219    0.0800
61     H61     3.7305   -3.3476   11.0672 H        1 ZINC000001486219    0.0800
62     H62    -1.0185   -0.6225    6.9646 H        1 ZINC000001486219    0.1400
63     H63    -2.1225   -0.4439    4.7724 H        1 ZINC000001486219    0.1400
@<TRIPOS>BOND
1     1     2     1
2     1     37    1
3     1     38    1
4     1     39    1
5     2     3     1
6     2     40    1
7     2     41    1
8     3     4     1
9     3     5     1
10    3     7     1
11    5     6     1
12    5     42    1
13    5     43    1
14    6     44    1
15    6     45    1
16    6     46    1
17    7     8     1
18    7     47    1
19    7     48    1
20    8     9     1
21    8     49    1
22    8     50    1
23    9     10    1
24    10    36    ar
25    10    11    ar
26    11    12    ar
27    11    51    1
28    12    13    ar
29    12    52    1
30    13    14    1
31    13    35    ar
32    14    15    1
33    14    53    1
34    15    34    ar
35    15    16    ar
36    16    17    ar
37    17    18    ar
38    17    54    1
39    18    33    ar
40    18    19    1
41    19    20    2
42    19    55    1
43    20    21    1
44    20    29    1
45    21    27    ar
46    21    22    ar
47    22    23    1
48    22    24    ar
49    24    25    ar
50    24    56    1
51    25    26    ar
52    25    57    1
53    26    27    ar
54    26    58    1
55    27    28    1
56    29    30    2
57    29    31    am
58    31    32    1
59    31    33    1
60    32    59    1
61    32    60    1
62    32    61    1
63    33    34    ar
64    35    36    ar
65    35    62    1
66    36    63    1
@<TRIPOS>SUBSTRUCTURE
1   ZINC000001486219 1     RESIDUE    1   A     ZIN   1


@<TRIPOS>MOLECULE
CCN(CCCOC1=CC2=C(C=C1)C(=NC=N2)NC3=NNC(=C3)CC(=O)NC4=CC(=CC=C4)F)CCO
68    71    1     0     0
SMALL
USER_CHARGES
@<TRIPOS>ATOM
1      C1      1.1245   -2.3271    0.2032 C.3      1 ZINC000016697102   -0.1900
2      C2      0.5055   -1.8481   -1.1114 C.3      1 ZINC000016697102   -0.0200
3      N3      0.4974   -0.3794   -1.1424 N.4      1 ZINC000016697102   -0.3800
4      H4      0.0340   -0.0282   -0.3177 H        1 ZINC000016697102    0.4300
5      C5     -0.2182    0.0812   -2.3398 C.3      1 ZINC000016697102   -0.0100
6      C6     -1.6889   -0.3298   -2.2446 C.3      1 ZINC000016697102    0.0500
7      O7     -2.3044    0.3528   -1.1505 O.3      1 ZINC000016697102   -0.5800
8      C8      1.8794    0.1173   -1.1765 C.3      1 ZINC000016697102   -0.0100
9      C9      1.8760    1.6431   -1.0632 C.3      1 ZINC000016697102   -0.1500
10     C10     3.3162    2.1508   -0.9699 C.3      1 ZINC000016697102    0.0600
11     O11     3.3130    3.5759   -0.8641 O.3      1 ZINC000016697102   -0.3100
12     C12     4.5207    4.1900   -0.7718 C.ar     1 ZINC000016697102    0.1700
13     C13     5.6886    3.4232   -0.7896 C.ar     1 ZINC000016697102   -0.2100
14     C14     6.9130    4.0136   -0.6986 C.ar     1 ZINC000016697102   -0.0200
15     C15     7.0056    5.4056   -0.5862 C.ar     1 ZINC000016697102   -0.2200
16     C16     5.8269    6.1922   -0.5678 C.ar     1 ZINC000016697102    0.2300
17     C17     4.5807    5.5637   -0.6674 C.ar     1 ZINC000016697102   -0.1500
18     N18     5.9425    7.5250   -0.4596 N.ar     1 ZINC000016697102   -0.5500
19     C19     7.1258    8.0850   -0.3730 C.ar     1 ZINC000016697102    0.3600
20     N20     8.2529    7.3917   -0.3860 N.ar     1 ZINC000016697102   -0.5800
21     C21     8.2523    6.0688   -0.4892 C.ar     1 ZINC000016697102    0.4900
22     N22     9.4349    5.3589   -0.5011 N.pl3    1 ZINC000016697102   -0.6000
23     C23    10.6580    6.0341   -0.4035 C.2      1 ZINC000016697102    0.3000
24     N24    11.8474    5.4794   -0.4088 N.2      1 ZINC000016697102   -0.3100
25     N25    12.8038    6.4960   -0.2921 N.pl3    1 ZINC000016697102   -0.4600
26     C26    12.1530    7.6760   -0.2167 C.2      1 ZINC000016697102    0.1100
27     C27    12.7916    9.0345   -0.0825 C.3      1 ZINC000016697102   -0.0800
28     C28    12.9410    9.6563   -1.4471 C.2      1 ZINC000016697102    0.5100
29     O29    12.5659    9.0555   -2.4317 O.2      1 ZINC000016697102   -0.5000
30     N30    13.4914   10.8800   -1.5735 N.am     1 ZINC000016697102   -0.6700
31     C31    13.5315   11.5032   -2.8255 C.ar     1 ZINC000016697102    0.1700
32     C32    14.6110   12.3066   -3.1684 C.ar     1 ZINC000016697102   -0.1500
33     C33    14.6489   12.9212   -4.4050 C.ar     1 ZINC000016697102   -0.0700
34     C34    13.6132   12.7382   -5.3020 C.ar     1 ZINC000016697102   -0.1700
35     C35    12.5341   11.9380   -4.9638 C.ar     1 ZINC000016697102    0.1200
36     F36    11.5233   11.7609   -5.8425 F        1 ZINC000016697102   -0.1400
37     C37    12.4945   11.3150   -3.7296 C.ar     1 ZINC000016697102   -0.1600
38     C38    10.8264    7.4235   -0.2890 C.2      1 ZINC000016697102   -0.2400
39     H39     2.1740   -2.0346    0.2384 H        1 ZINC000016697102    0.0800
40     H40     0.5932   -1.8753    1.0409 H        1 ZINC000016697102    0.0800
41     H41     1.0475   -3.4125    0.2669 H        1 ZINC000016697102    0.1100
42     H42     1.0926   -2.2259   -1.9484 H        1 ZINC000016697102    0.1300
43     H43    -0.5167   -2.2187   -1.1879 H        1 ZINC000016697102    0.1300
44     H44    -0.1481    1.1667   -2.4099 H        1 ZINC000016697102    0.1400
45     H45     0.2285   -0.3698   -3.2259 H        1 ZINC000016697102    0.1400
46     H46    -2.2002   -0.0670   -3.1707 H        1 ZINC000016697102    0.1000
47     H47    -1.7559   -1.4060   -2.0854 H        1 ZINC000016697102    0.0700
48     H48    -3.2400    0.1399   -1.0302 H        1 ZINC000016697102    0.4100
49     H49     2.4389   -0.3077   -0.3431 H        1 ZINC000016697102    0.1400
50     H50     2.3479   -0.1762   -2.1159 H        1 ZINC000016697102    0.1300
51     H51     1.3959    2.0716   -1.9429 H        1 ZINC000016697102    0.1000
52     H52     1.3275    1.9398   -0.1692 H        1 ZINC000016697102    0.1000
53     H53     3.7963    1.7222   -0.0901 H        1 ZINC000016697102    0.0800
54     H54     3.8647    1.8541   -1.8639 H        1 ZINC000016697102    0.0800
55     H55     5.6199    2.3488   -0.8762 H        1 ZINC000016697102    0.1400
56     H56     7.8085    3.4100   -0.7127 H        1 ZINC000016697102    0.1300
57     H57     3.6731    6.1490   -0.6548 H        1 ZINC000016697102    0.1500
58     H58     7.1826    9.1601   -0.2874 H        1 ZINC000016697102    0.2000
59     H59     9.4194    4.3920   -0.5771 H        1 ZINC000016697102    0.4300
60     H60    13.7658    6.3734   -0.2691 H        1 ZINC000016697102    0.4400
61     H61    12.1633    9.6714    0.5401 H        1 ZINC000016697102    0.1300
62     H62    13.7736    8.9304    0.3788 H        1 ZINC000016697102    0.1100
63     H63    13.8599   11.3286   -0.7964 H        1 ZINC000016697102    0.4200
64     H64    15.4206   12.4511   -2.4684 H        1 ZINC000016697102    0.1300
65     H65    15.4887   13.5459   -4.6712 H        1 ZINC000016697102    0.1400
66     H66    13.6452   13.2202   -6.2679 H        1 ZINC000016697102    0.1400
67     H67    11.6534   10.6911   -3.4655 H        1 ZINC000016697102    0.1500
68     H68    10.0364    8.1593   -0.2570 H        1 ZINC000016697102    0.1900
@<TRIPOS>BOND
1     1     2     1
2     1     39    1
3     1     40    1
4     1     41    1
5     2     3     1
6     2     42    1
7     2     43    1
8     3     4     1
9     3     5     1
10    3     8     1
11    5     6     1
12    5     44    1
13    5     45    1
14    6     7     1
15    6     46    1
16    6     47    1
17    7     48    1
18    8     9     1
19    8     49    1
20    8     50    1
21    9     10    1
22    9     51    1
23    9     52    1
24    10    11    1
25    10    53    1
26    10    54    1
27    11    12    1
28    12    17    ar
29    12    13    ar
30    13    14    ar
31    13    55    1
32    14    15    ar
33    14    56    1
34    15    21    ar
35    15    16    ar
36    16    17    ar
37    16    18    ar
38    17    57    1
39    18    19    ar
40    19    20    ar
41    19    58    1
42    20    21    ar
43    21    22    1
44    22    23    1
45    22    59    1
46    23    38    1
47    23    24    2
48    24    25    1
49    25    26    1
50    25    60    1
51    26    27    1
52    26    38    2
53    27    28    1
54    27    61    1
55    27    62    1
56    28    29    2
57    28    30    am
58    30    31    1
59    30    63    1
60    31    37    ar
61    31    32    ar
62    32    33    ar
63    32    64    1
64    33    34    ar
65    33    65    1
66    34    35    ar
67    34    66    1
68    35    36    1
69    35    37    ar
70    37    67    1
71    38    68    1
@<TRIPOS>SUBSTRUCTURE
1   ZINC000016697102 1     RESIDUE    1   A     ZIN   1


@<TRIPOS>MOLECULE
CCN1C2=NC(=NC=C2C=C(C1=O)C3=C(C=C(C=C3)C4=CN=CS4)Cl)NC5=CC=C(C=C5)N6CCN(CC6)C
68    73    1     0     0
SMALL
USER_CHARGES
@<TRIPOS>ATOM
1      C1      0.0449    2.1432    0.5294 C.3      1 ZINC000098209617   -0.1600
2      C2      0.0984    0.6372    0.2645 C.3      1 ZINC000098209617    0.1000
3      N3      0.7796   -0.0303    1.3765 N.am     1 ZINC000098209617   -0.5000
4      C4      2.1157   -0.1962    1.3365 C.2      1 ZINC000098209617    0.5500
5      O5      2.7483    0.2092    0.3778 O.2      1 ZINC000098209617   -0.5000
6      C6      2.8118   -0.8612    2.4406 C.2      1 ZINC000098209617   -0.1500
7      C7      4.2804   -1.0428    2.3963 C.ar     1 ZINC000098209617   -0.0200
8      C8      4.8387   -2.0128    1.5624 C.ar     1 ZINC000098209617   -0.0700
9      C9      6.2043   -2.1824    1.5211 C.ar     1 ZINC000098209617   -0.1100
10     C10     7.0319   -1.3836    2.3134 C.ar     1 ZINC000098209617    0.0100
11     C11     8.4976   -1.5656    2.2685 C.2      1 ZINC000098209617   -0.2000
12     C12     9.4088   -0.8687    2.9826 C.2      1 ZINC000098209617    0.0600
13     N13    10.6545   -1.2243    2.7603 N.2      1 ZINC000098209617   -0.4700
14     C14    10.8562   -2.1731    1.9080 C.2      1 ZINC000098209617    0.0200
15     S15     9.3689   -2.7353    1.2799 S.3      1 ZINC000098209617    0.1500
16     C16     6.4739   -0.4122    3.1480 C.ar     1 ZINC000098209617   -0.0900
17     C17     5.1078   -0.2392    3.1851 C.ar     1 ZINC000098209617   -0.0100
18     Cl18    4.4134    0.9676    4.2220 Cl       1 ZINC000098209617   -0.0600
19     C19     2.0916   -1.3131    3.5146 C.2      1 ZINC000098209617    0.0200
20     C20     0.6909   -1.1248    3.5283 C.ar     1 ZINC000098209617   -0.2700
21     C21    -0.0918   -1.5692    4.6047 C.ar     1 ZINC000098209617    0.2600
22     N22    -1.3953   -1.3664    4.5640 N.ar     1 ZINC000098209617   -0.5700
23     C23    -1.9644   -0.7555    3.5305 C.ar     1 ZINC000098209617    0.6000
24     N24    -3.3330   -0.5691    3.5390 N.pl3    1 ZINC000098209617   -0.6300
25     C25    -4.0798   -0.9141    4.6727 C.ar     1 ZINC000098209617    0.1600
26     C26    -3.5287   -0.7655    5.9387 C.ar     1 ZINC000098209617   -0.0800
27     C27    -4.2648   -1.1056    7.0563 C.ar     1 ZINC000098209617   -0.1000
28     C28    -5.5564   -1.5958    6.9143 C.ar     1 ZINC000098209617    0.0700
29     N29    -6.3026   -1.9400    8.0469 N.3      1 ZINC000098209617   -0.4800
30     C30    -5.5905   -2.9316    8.8654 C.3      1 ZINC000098209617    0.0300
31     C31    -6.4107   -3.2358   10.1210 C.3      1 ZINC000098209617    0.0000
32     N32    -7.7291   -3.7530    9.7315 N.4      1 ZINC000098209617   -0.3900
33     H33    -7.6124   -4.5917    9.1828 H        1 ZINC000098209617    0.4200
34     C34    -8.5095   -4.0615   10.9372 C.3      1 ZINC000098209617   -0.0500
35     C35    -8.4379   -2.7423    8.9355 C.3      1 ZINC000098209617    0.0000
36     C36    -7.6345   -2.4340    7.6701 C.3      1 ZINC000098209617    0.0200
37     C37    -6.1076   -1.7439    5.6482 C.ar     1 ZINC000098209617   -0.1400
38     C38    -5.3732   -1.3993    4.5309 C.ar     1 ZINC000098209617   -0.1200
39     N39    -1.2675   -0.3184    2.4925 N.ar     1 ZINC000098209617   -0.5900
40     C40     0.0507   -0.4752    2.4505 C.ar     1 ZINC000098209617    0.4700
41     H41     1.0590    2.5323    0.6205 H        1 ZINC000098209617    0.0600
42     H42    -0.4619    2.6399   -0.2979 H        1 ZINC000098209617    0.0800
43     H43    -0.5005    2.3302    1.4545 H        1 ZINC000098209617    0.0600
44     H44    -0.9157    0.2481    0.1734 H        1 ZINC000098209617    0.1000
45     H45     0.6438    0.4502   -0.6606 H        1 ZINC000098209617    0.1000
46     H46     4.1992   -2.6307    0.9495 H        1 ZINC000098209617    0.1400
47     H47     6.6358   -2.9336    0.8761 H        1 ZINC000098209617    0.1300
48     H48     9.1369   -0.0867    3.6762 H        1 ZINC000098209617    0.1800
49     H49    11.8267   -2.5600    1.6343 H        1 ZINC000098209617    0.2000
50     H50     7.1135    0.2056    3.7608 H        1 ZINC000098209617    0.1400
51     H51     2.5865   -1.8062    4.3382 H        1 ZINC000098209617    0.1500
52     H52     0.3627   -2.0669    5.4485 H        1 ZINC000098209617    0.1900
53     H53    -3.7770   -0.1992    2.7599 H        1 ZINC000098209617    0.4300
54     H54    -2.5243   -0.3843    6.0491 H        1 ZINC000098209617    0.1400
55     H55    -3.8360   -0.9907    8.0408 H        1 ZINC000098209617    0.1300
56     H56    -5.4533   -3.8471    8.2900 H        1 ZINC000098209617    0.0700
57     H57    -4.6176   -2.5337    9.1541 H        1 ZINC000098209617    0.1300
58     H58    -5.8910   -3.9816   10.7226 H        1 ZINC000098209617    0.1400
59     H59    -6.5361   -2.3228   10.7031 H        1 ZINC000098209617    0.1400
60     H60    -8.6352   -3.1557   11.5303 H        1 ZINC000098209617    0.1200
61     H61    -9.4879   -4.4454   10.6483 H        1 ZINC000098209617    0.1200
62     H62    -7.9845   -4.8124   11.5276 H        1 ZINC000098209617    0.1200
63     H63    -9.4211   -3.1222    8.6581 H        1 ZINC000098209617    0.1400
64     H64    -8.5529   -1.8318    9.5236 H        1 ZINC000098209617    0.1400
65     H65    -8.1529   -1.6731    7.0866 H        1 ZINC000098209617    0.1300
66     H66    -7.5310   -3.3413    7.0750 H        1 ZINC000098209617    0.0700
67     H67    -7.1119   -2.1255    5.5377 H        1 ZINC000098209617    0.1300
68     H68    -5.8018   -1.5145    3.5464 H        1 ZINC000098209617    0.1300
@<TRIPOS>BOND
1     1     2     1
2     1     41    1
3     1     42    1
4     1     43    1
5     2     3     1
6     2     44    1
7     2     45    1
8     3     40    1
9     3     4     am
10    4     5     2
11    4     6     1
12    6     7     1
13    6     19    2
14    7     17    ar
15    7     8     ar
16    8     9     ar
17    8     46    1
18    9     10    ar
19    9     47    1
20    10    11    1
21    10    16    ar
22    11    15    1
23    11    12    2
24    12    13    1
25    12    48    1
26    13    14    2
27    14    15    1
28    14    49    1
29    16    17    ar
30    16    50    1
31    17    18    1
32    19    20    1
33    19    51    1
34    20    40    ar
35    20    21    ar
36    21    22    ar
37    21    52    1
38    22    23    ar
39    23    24    1
40    23    39    ar
41    24    25    1
42    24    53    1
43    25    38    ar
44    25    26    ar
45    26    27    ar
46    26    54    1
47    27    28    ar
48    27    55    1
49    28    29    1
50    28    37    ar
51    29    36    1
52    29    30    1
53    30    31    1
54    30    56    1
55    30    57    1
56    31    32    1
57    31    58    1
58    31    59    1
59    32    33    1
60    32    34    1
61    32    35    1
62    34    60    1
63    34    61    1
64    34    62    1
65    35    36    1
66    35    63    1
67    35    64    1
68    36    65    1
69    36    66    1
70    37    38    ar
71    37    67    1
72    38    68    1
73    39    40    ar
@<TRIPOS>SUBSTRUCTURE
1   ZINC000098209617 1     RESIDUE    1   A     ZIN   1


@<TRIPOS>MOLECULE
CCN1C2=NC(=NC=C2C=C(C1=O)C3=C(C=C(C=C3)C4=NC(=CN=C4)C)Cl)NCCC5CCN(CC5)C
70    74    1     0     0
SMALL
USER_CHARGES
@<TRIPOS>ATOM
1      C1     -0.0187    1.5258    0.0104 C.3      1 ZINC000205502630   -0.1600
2      C2      0.0021   -0.0041    0.0020 C.3      1 ZINC000205502630    0.1000
3      N3     -1.3723   -0.5112    0.0124 N.am     1 ZINC000205502630   -0.5000
4      C4     -1.9884   -0.7429    1.1875 C.2      1 ZINC000205502630    0.5500
5      O5     -1.4000   -0.5298    2.2326 O.2      1 ZINC000205502630   -0.5000
6      C6     -3.3625   -1.2494    1.2151 C.2      1 ZINC000205502630   -0.1600
7      C7     -4.0393   -1.5035    2.5071 C.ar     1 ZINC000205502630   -0.0100
8      C8     -3.6944   -2.6214    3.2677 C.ar     1 ZINC000205502630   -0.0800
9      C9     -4.3241   -2.8576    4.4696 C.ar     1 ZINC000205502630   -0.0900
10     C10    -5.3068   -1.9797    4.9273 C.ar     1 ZINC000205502630   -0.0300
11     C11    -5.9841   -2.2352    6.2207 C.ar     1 ZINC000205502630    0.1200
12     C12    -5.5658   -3.2890    7.0338 C.ar     1 ZINC000205502630    0.0600
13     N13    -6.1725   -3.5121    8.1845 N.ar     1 ZINC000205502630   -0.4300
14     C14    -7.1745   -2.7389    8.5666 C.ar     1 ZINC000205502630    0.0500
15     C15    -7.5932   -1.6924    7.7628 C.ar     1 ZINC000205502630    0.0900
16     C16    -8.7362   -0.8153    8.2049 C.3      1 ZINC000205502630   -0.1000
17     N17    -6.9891   -1.4573    6.6128 N.ar     1 ZINC000205502630   -0.4300
18     C18    -5.6521   -0.8610    4.1684 C.ar     1 ZINC000205502630   -0.0700
19     C19    -5.0194   -0.6210    2.9680 C.ar     1 ZINC000205502630   -0.0200
20     Cl20   -5.4486    0.7707    2.0233 Cl       1 ZINC000205502630   -0.0600
21     C21    -4.0159   -1.4854    0.0344 C.2      1 ZINC000205502630    0.0200
22     C22    -3.3436   -1.2328   -1.1828 C.ar     1 ZINC000205502630   -0.2800
23     C23    -3.9685   -1.4581   -2.4187 C.ar     1 ZINC000205502630    0.2700
24     N24    -3.2927   -1.2047   -3.5237 N.ar     1 ZINC000205502630   -0.5800
25     C25    -2.0468   -0.7458   -3.4780 C.ar     1 ZINC000205502630    0.6100
26     N26    -1.3859   -0.4971   -4.6642 N.pl3    1 ZINC000205502630   -0.6900
27     C27    -2.0591   -0.7396   -5.9426 C.3      1 ZINC000205502630    0.1300
28     C28    -1.1134   -0.3861   -7.0922 C.3      1 ZINC000205502630   -0.1300
29     C29    -1.8165   -0.6393   -8.4272 C.3      1 ZINC000205502630   -0.0900
30     C30    -2.9971    0.3248   -8.5752 C.3      1 ZINC000205502630   -0.1500
31     C31    -3.6467    0.1206   -9.9455 C.3      1 ZINC000205502630   -0.0100
32     N32    -2.6623    0.3843  -11.0019 N.4      1 ZINC000205502630   -0.3900
33     H33    -2.2973    1.3188  -10.8944 H        1 ZINC000205502630    0.4200
34     C34    -3.3101    0.2612  -12.3146 C.3      1 ZINC000205502630   -0.0500
35     C35    -1.5619   -0.5828  -10.9100 C.3      1 ZINC000205502630   -0.0100
36     C36    -0.8321   -0.4056   -9.5768 C.3      1 ZINC000205502630   -0.1400
37     N37    -1.4157   -0.5178   -2.3365 N.ar     1 ZINC000205502630   -0.6000
38     C38    -2.0207   -0.7397   -1.1749 C.ar     1 ZINC000205502630    0.4700
39     H39     1.0039    1.9031    0.0027 H        1 ZINC000205502630    0.0800
40     H40    -0.5459    1.8868   -0.8726 H        1 ZINC000205502630    0.0600
41     H41    -0.5289    1.8773    0.9072 H        1 ZINC000205502630    0.0600
42     H42     0.5123   -0.3556   -0.8948 H        1 ZINC000205502630    0.1000
43     H43     0.5293   -0.3651    0.8851 H        1 ZINC000205502630    0.1000
44     H44    -2.9339   -3.3017    2.9138 H        1 ZINC000205502630    0.1400
45     H45    -4.0571   -3.7231    5.0578 H        1 ZINC000205502630    0.1400
46     H46    -4.7475   -3.9212    6.7220 H        1 ZINC000205502630    0.1700
47     H47    -7.6685   -2.9246    9.5089 H        1 ZINC000205502630    0.1700
48     H48    -8.3480    0.0235    8.7827 H        1 ZINC000205502630    0.0900
49     H49    -9.2655   -0.4395    7.3294 H        1 ZINC000205502630    0.0800
50     H50    -9.4216   -1.3956    8.8226 H        1 ZINC000205502630    0.0800
51     H51    -6.4127   -0.1815    4.5233 H        1 ZINC000205502630    0.1500
52     H52    -5.0291   -1.8592    0.0337 H        1 ZINC000205502630    0.1500
53     H53    -4.9809   -1.8313   -2.4647 H        1 ZINC000205502630    0.1900
54     H54    -0.4758   -0.1618   -4.6513 H        1 ZINC000205502630    0.4200
55     H55    -2.3387   -1.7908   -6.0123 H        1 ZINC000205502630    0.0700
56     H56    -2.9542   -0.1206   -6.0050 H        1 ZINC000205502630    0.0700
57     H57    -0.8337    0.6652   -7.0224 H        1 ZINC000205502630    0.0800
58     H58    -0.2183   -1.0050   -7.0297 H        1 ZINC000205502630    0.0800
59     H59    -2.1775   -1.6672   -8.4598 H        1 ZINC000205502630    0.0900
60     H60    -3.7291    0.1268   -7.7922 H        1 ZINC000205502630    0.1200
61     H61    -2.6413    1.3517   -8.4905 H        1 ZINC000205502630    0.0900
62     H62    -4.0023   -0.9064  -10.0291 H        1 ZINC000205502630    0.1300
63     H63    -4.4877    0.8053  -10.0541 H        1 ZINC000205502630    0.1300
64     H64    -4.1239    0.9827  -12.3872 H        1 ZINC000205502630    0.1200
65     H65    -2.5799    0.4569  -13.0999 H        1 ZINC000205502630    0.1200
66     H66    -3.7071   -0.7472  -12.4307 H        1 ZINC000205502630    0.1200
67     H67    -1.9620   -1.5948  -10.9730 H        1 ZINC000205502630    0.1300
68     H68    -0.8639   -0.4173  -11.7307 H        1 ZINC000205502630    0.1300
69     H69    -0.4314    0.6061   -9.5129 H        1 ZINC000205502630    0.0900
70     H70    -0.0166   -1.1257   -9.5098 H        1 ZINC000205502630    0.1100
@<TRIPOS>BOND
1     1     2     1
2     1     39    1
3     1     40    1
4     1     41    1
5     2     3     1
6     2     42    1
7     2     43    1
8     3     38    1
9     3     4     am
10    4     5     2
11    4     6     1
12    6     7     1
13    6     21    2
14    7     19    ar
15    7     8     ar
16    8     9     ar
17    8     44    1
18    9     10    ar
19    9     45    1
20    10    11    1
21    10    18    ar
22    11    17    ar
23    11    12    ar
24    12    13    ar
25    12    46    1
26    13    14    ar
27    14    15    ar
28    14    47    1
29    15    16    1
30    15    17    ar
31    16    48    1
32    16    49    1
33    16    50    1
34    18    19    ar
35    18    51    1
36    19    20    1
37    21    22    1
38    21    52    1
39    22    38    ar
40    22    23    ar
41    23    24    ar
42    23    53    1
43    24    25    ar
44    25    26    1
45    25    37    ar
46    26    27    1
47    26    54    1
48    27    28    1
49    27    55    1
50    27    56    1
51    28    29    1
52    28    57    1
53    28    58    1
54    29    36    1
55    29    30    1
56    29    59    1
57    30    31    1
58    30    60    1
59    30    61    1
60    31    32    1
61    31    62    1
62    31    63    1
63    32    33    1
64    32    34    1
65    32    35    1
66    34    64    1
67    34    65    1
68    34    66    1
69    35    36    1
70    35    67    1
71    35    68    1
72    36    69    1
73    36    70    1
74    37    38    ar
@<TRIPOS>SUBSTRUCTURE
1   ZINC000205502630 1     RESIDUE    1   A     ZIN   1


@<TRIPOS>MOLECULE
CCN1C2=NC(=NC=C2C=C(C1=O)C3=C(C=C(C=C3)C4=NC(=CN=C4)C)Cl)NCCC5CCN(CC5)C
70    74    1     0     0
SMALL
USER_CHARGES
@<TRIPOS>ATOM
1      C1     -0.0187    1.5258    0.0104 C.3      1 ZINC000205502630   -0.1600
2      C2      0.0021   -0.0041    0.0020 C.3      1 ZINC000205502630    0.1000
3      N3     -1.3723   -0.5112    0.0124 N.am     1 ZINC000205502630   -0.5000
4      C4     -1.9884   -0.7429    1.1875 C.2      1 ZINC000205502630    0.5500
5      O5     -1.4000   -0.5298    2.2326 O.2      1 ZINC000205502630   -0.5000
6      C6     -3.3625   -1.2494    1.2151 C.2      1 ZINC000205502630   -0.1600
7      C7     -4.0393   -1.5035    2.5071 C.ar     1 ZINC000205502630   -0.0100
8      C8     -3.6944   -2.6214    3.2677 C.ar     1 ZINC000205502630   -0.0800
9      C9     -4.3241   -2.8576    4.4696 C.ar     1 ZINC000205502630   -0.0900
10     C10    -5.3068   -1.9797    4.9273 C.ar     1 ZINC000205502630   -0.0300
11     C11    -5.9841   -2.2352    6.2207 C.ar     1 ZINC000205502630    0.1200
12     C12    -5.5658   -3.2890    7.0338 C.ar     1 ZINC000205502630    0.0600
13     N13    -6.1725   -3.5121    8.1845 N.ar     1 ZINC000205502630   -0.4300
14     C14    -7.1745   -2.7389    8.5666 C.ar     1 ZINC000205502630    0.0500
15     C15    -7.5932   -1.6924    7.7628 C.ar     1 ZINC000205502630    0.0900
16     C16    -8.7362   -0.8153    8.2049 C.3      1 ZINC000205502630   -0.1000
17     N17    -6.9891   -1.4573    6.6128 N.ar     1 ZINC000205502630   -0.4300
18     C18    -5.6521   -0.8610    4.1684 C.ar     1 ZINC000205502630   -0.0700
19     C19    -5.0194   -0.6210    2.9680 C.ar     1 ZINC000205502630   -0.0200
20     Cl20   -5.4486    0.7707    2.0233 Cl       1 ZINC000205502630   -0.0600
21     C21    -4.0159   -1.4854    0.0344 C.2      1 ZINC000205502630    0.0200
22     C22    -3.3436   -1.2328   -1.1828 C.ar     1 ZINC000205502630   -0.2800
23     C23    -3.9685   -1.4581   -2.4187 C.ar     1 ZINC000205502630    0.2700
24     N24    -3.2927   -1.2047   -3.5237 N.ar     1 ZINC000205502630   -0.5800
25     C25    -2.0468   -0.7458   -3.4780 C.ar     1 ZINC000205502630    0.6100
26     N26    -1.3859   -0.4971   -4.6642 N.pl3    1 ZINC000205502630   -0.6900
27     C27    -2.0591   -0.7396   -5.9426 C.3      1 ZINC000205502630    0.1300
28     C28    -1.1134   -0.3861   -7.0922 C.3      1 ZINC000205502630   -0.1300
29     C29    -1.8165   -0.6393   -8.4272 C.3      1 ZINC000205502630   -0.0900
30     C30    -2.9971    0.3248   -8.5752 C.3      1 ZINC000205502630   -0.1500
31     C31    -3.6467    0.1206   -9.9455 C.3      1 ZINC000205502630   -0.0100
32     N32    -2.6623    0.3843  -11.0019 N.4      1 ZINC000205502630   -0.3900
33     H33    -2.2973    1.3188  -10.8944 H        1 ZINC000205502630    0.4200
34     C34    -3.3101    0.2612  -12.3146 C.3      1 ZINC000205502630   -0.0500
35     C35    -1.5619   -0.5828  -10.9100 C.3      1 ZINC000205502630   -0.0100
36     C36    -0.8321   -0.4056   -9.5768 C.3      1 ZINC000205502630   -0.1400
37     N37    -1.4157   -0.5178   -2.3365 N.ar     1 ZINC000205502630   -0.6000
38     C38    -2.0207   -0.7397   -1.1749 C.ar     1 ZINC000205502630    0.4700
39     H39     1.0039    1.9031    0.0027 H        1 ZINC000205502630    0.0800
40     H40    -0.5459    1.8868   -0.8726 H        1 ZINC000205502630    0.0600
41     H41    -0.5289    1.8773    0.9072 H        1 ZINC000205502630    0.0600
42     H42     0.5123   -0.3556   -0.8948 H        1 ZINC000205502630    0.1000
43     H43     0.5293   -0.3651    0.8851 H        1 ZINC000205502630    0.1000
44     H44    -2.9339   -3.3017    2.9138 H        1 ZINC000205502630    0.1400
45     H45    -4.0571   -3.7231    5.0578 H        1 ZINC000205502630    0.1400
46     H46    -4.7475   -3.9212    6.7220 H        1 ZINC000205502630    0.1700
47     H47    -7.6685   -2.9246    9.5089 H        1 ZINC000205502630    0.1700
48     H48    -8.3480    0.0235    8.7827 H        1 ZINC000205502630    0.0900
49     H49    -9.2655   -0.4395    7.3294 H        1 ZINC000205502630    0.0800
50     H50    -9.4216   -1.3956    8.8226 H        1 ZINC000205502630    0.0800
51     H51    -6.4127   -0.1815    4.5233 H        1 ZINC000205502630    0.1500
52     H52    -5.0291   -1.8592    0.0337 H        1 ZINC000205502630    0.1500
53     H53    -4.9809   -1.8313   -2.4647 H        1 ZINC000205502630    0.1900
54     H54    -0.4758   -0.1618   -4.6513 H        1 ZINC000205502630    0.4200
55     H55    -2.3387   -1.7908   -6.0123 H        1 ZINC000205502630    0.0700
56     H56    -2.9542   -0.1206   -6.0050 H        1 ZINC000205502630    0.0700
57     H57    -0.8337    0.6652   -7.0224 H        1 ZINC000205502630    0.0800
58     H58    -0.2183   -1.0050   -7.0297 H        1 ZINC000205502630    0.0800
59     H59    -2.1775   -1.6672   -8.4598 H        1 ZINC000205502630    0.0900
60     H60    -3.7291    0.1268   -7.7922 H        1 ZINC000205502630    0.1200
61     H61    -2.6413    1.3517   -8.4905 H        1 ZINC000205502630    0.0900
62     H62    -4.0023   -0.9064  -10.0291 H        1 ZINC000205502630    0.1300
63     H63    -4.4877    0.8053  -10.0541 H        1 ZINC000205502630    0.1300
64     H64    -4.1239    0.9827  -12.3872 H        1 ZINC000205502630    0.1200
65     H65    -2.5799    0.4569  -13.0999 H        1 ZINC000205502630    0.1200
66     H66    -3.7071   -0.7472  -12.4307 H        1 ZINC000205502630    0.1200
67     H67    -1.9620   -1.5948  -10.9730 H        1 ZINC000205502630    0.1300
68     H68    -0.8639   -0.4173  -11.7307 H        1 ZINC000205502630    0.1300
69     H69    -0.4314    0.6061   -9.5129 H        1 ZINC000205502630    0.0900
70     H70    -0.0166   -1.1257   -9.5098 H        1 ZINC000205502630    0.1100
@<TRIPOS>BOND
1     1     2     1
2     1     39    1
3     1     40    1
4     1     41    1
5     2     3     1
6     2     42    1
7     2     43    1
8     3     38    1
9     3     4     am
10    4     5     2
11    4     6     1
12    6     7     1
13    6     21    2
14    7     19    ar
15    7     8     ar
16    8     9     ar
17    8     44    1
18    9     10    ar
19    9     45    1
20    10    11    1
21    10    18    ar
22    11    17    ar
23    11    12    ar
24    12    13    ar
25    12    46    1
26    13    14    ar
27    14    15    ar
28    14    47    1
29    15    16    1
30    15    17    ar
31    16    48    1
32    16    49    1
33    16    50    1
34    18    19    ar
35    18    51    1
36    19    20    1
37    21    22    1
38    21    52    1
39    22    38    ar
40    22    23    ar
41    23    24    ar
42    23    53    1
43    24    25    ar
44    25    26    1
45    25    37    ar
46    26    27    1
47    26    54    1
48    27    28    1
49    27    55    1
50    27    56    1
51    28    29    1
52    28    57    1
53    28    58    1
54    29    36    1
55    29    30    1
56    29    59    1
57    30    31    1
58    30    60    1
59    30    61    1
60    31    32    1
61    31    62    1
62    31    63    1
63    32    33    1
64    32    34    1
65    32    35    1
66    34    64    1
67    34    65    1
68    34    66    1
69    35    36    1
70    35    67    1
71    35    68    1
72    36    69    1
73    36    70    1
74    37    38    ar
@<TRIPOS>SUBSTRUCTURE
1   ZINC000205502630 1     RESIDUE    1   A     ZIN   1


@<TRIPOS>MOLECULE
CCN1C2=NC(=NC=C2C=C(C1=O)C3=C(C=C(C=C3)Cl)Cl)NC4=CC(=C(C=C4)N5CCNCC5)F
59    63    1     0     0
SMALL
USER_CHARGES
@<TRIPOS>ATOM
1      C1     -0.5101    2.1392   -0.1814 C.3      1 ZINC000095930185   -0.1600
2      C2     -0.2834    0.6334   -0.0330 C.3      1 ZINC000095930185    0.1000
3      N3     -1.5763   -0.0554   -0.0125 N.am     1 ZINC000095930185   -0.5000
4      C4     -2.2067   -0.2550    1.1610 C.2      1 ZINC000095930185    0.5500
5      O5     -1.6986    0.1374    2.1962 O.2      1 ZINC000095930185   -0.4900
6      C6     -3.5000   -0.9409    1.1985 C.2      1 ZINC000095930185   -0.1500
7      C7     -4.1931   -1.1592    2.4897 C.ar     1 ZINC000095930185   -0.0200
8      C8     -3.7375   -2.1381    3.3717 C.ar     1 ZINC000095930185   -0.0700
9      C9     -4.3867   -2.3374    4.5730 C.ar     1 ZINC000095930185   -0.1000
10     C10    -5.4889   -1.5676    4.9037 C.ar     1 ZINC000095930185   -0.0200
11     Cl11   -6.3003   -1.8242    6.4168 Cl       1 ZINC000095930185   -0.0500
12     C12    -5.9462   -0.5935    4.0324 C.ar     1 ZINC000095930185   -0.1000
13     C13    -5.3013   -0.3817    2.8301 C.ar     1 ZINC000095930185   -0.0100
14     Cl14   -5.8754    0.8399    1.7384 Cl       1 ZINC000095930185   -0.0500
15     C15    -4.0632   -1.3783    0.0296 C.2      1 ZINC000095930185    0.0200
16     C16    -3.3782   -1.1551   -1.1865 C.ar     1 ZINC000095930185   -0.2700
17     C17    -3.9126   -1.5834   -2.4110 C.ar     1 ZINC000095930185    0.2600
18     N18    -3.2293   -1.3480   -3.5154 N.ar     1 ZINC000095930185   -0.5700
19     C19    -2.0594   -0.7195   -3.4795 C.ar     1 ZINC000095930185    0.6000
20     N20    -1.3862   -0.4984   -4.6652 N.pl3    1 ZINC000095930185   -0.6300
21     C21    -1.9900   -0.8282   -5.8852 C.ar     1 ZINC000095930185    0.1900
22     C22    -3.3636   -0.6975   -6.0374 C.ar     1 ZINC000095930185   -0.0900
23     C23    -3.9602   -1.0225   -7.2405 C.ar     1 ZINC000095930185   -0.0800
24     C24    -3.1866   -1.4798   -8.2978 C.ar     1 ZINC000095930185    0.0400
25     N25    -3.7918   -1.8088   -9.5178 N.3      1 ZINC000095930185   -0.4800
26     C26    -2.8073   -2.3512  -10.4647 C.3      1 ZINC000095930185    0.0100
27     C27    -3.5170   -2.7525  -11.7598 C.3      1 ZINC000095930185   -0.0100
28     N28    -4.1823   -1.5775  -12.3380 N.4      1 ZINC000095930185   -0.5100
29     H29    -3.4965   -0.8619  -12.5267 H        1 ZINC000095930185    0.4300
30     H30    -4.6399   -1.8398  -13.1982 H        1 ZINC000095930185    0.4400
31     C31    -5.1797   -1.0620  -11.3909 C.3      1 ZINC000095930185    0.0000
32     C32    -4.4839   -0.6467  -10.0928 C.3      1 ZINC000095930185    0.0200
33     C33    -1.8102   -1.6111   -8.1463 C.ar     1 ZINC000095930185    0.0800
34     F34    -1.0563   -2.0559   -9.1754 F        1 ZINC000095930185   -0.1300
35     C35    -1.2134   -1.2804   -6.9445 C.ar     1 ZINC000095930185   -0.1600
36     N36    -1.5151   -0.2967   -2.3486 N.ar     1 ZINC000095930185   -0.5900
37     C37    -2.1353   -0.4855   -1.1893 C.ar     1 ZINC000095930185    0.4700
38     H38     0.4518    2.6516   -0.1967 H        1 ZINC000095930185    0.0800
39     H39    -1.0417    2.3366   -1.1123 H        1 ZINC000095930185    0.0600
40     H40    -1.1018    2.5021    0.6590 H        1 ZINC000095930185    0.0600
41     H41     0.3083    0.2704   -0.8733 H        1 ZINC000095930185    0.1000
42     H42     0.2482    0.4360    0.8979 H        1 ZINC000095930185    0.1000
43     H43    -2.8781   -2.7397    3.1150 H        1 ZINC000095930185    0.1400
44     H44    -4.0345   -3.0957    5.2565 H        1 ZINC000095930185    0.1500
45     H45    -6.8064    0.0042    4.2954 H        1 ZINC000095930185    0.1500
46     H46    -5.0161   -1.8865    0.0368 H        1 ZINC000095930185    0.1500
47     H47    -4.8628   -2.0954   -2.4491 H        1 ZINC000095930185    0.1900
48     H48    -0.4954   -0.1149   -4.6529 H        1 ZINC000095930185    0.4300
49     H49    -3.9664   -0.3419   -5.2148 H        1 ZINC000095930185    0.1500
50     H50    -5.0289   -0.9209   -7.3579 H        1 ZINC000095930185    0.1400
51     H51    -2.0554   -1.5926  -10.6821 H        1 ZINC000095930185    0.0800
52     H52    -2.3260   -3.2261  -10.0277 H        1 ZINC000095930185    0.1400
53     H53    -2.7864   -3.1419  -12.4688 H        1 ZINC000095930185    0.1400
54     H54    -4.2593   -3.5210  -11.5442 H        1 ZINC000095930185    0.1400
55     H55    -5.6818   -0.1981  -11.8264 H        1 ZINC000095930185    0.1400
56     H56    -5.9135   -1.8391  -11.1772 H        1 ZINC000095930185    0.1400
57     H57    -5.2257   -0.2780   -9.3844 H        1 ZINC000095930185    0.1300
58     H58    -3.7596    0.1400  -10.3040 H        1 ZINC000095930185    0.0700
59     H59    -0.1447   -1.3817   -6.8261 H        1 ZINC000095930185    0.1500
@<TRIPOS>BOND
1     1     2     1
2     1     38    1
3     1     39    1
4     1     40    1
5     2     3     1
6     2     41    1
7     2     42    1
8     3     37    1
9     3     4     am
10    4     5     2
11    4     6     1
12    6     7     1
13    6     15    2
14    7     13    ar
15    7     8     ar
16    8     9     ar
17    8     43    1
18    9     10    ar
19    9     44    1
20    10    11    1
21    10    12    ar
22    12    13    ar
23    12    45    1
24    13    14    1
25    15    16    1
26    15    46    1
27    16    37    ar
28    16    17    ar
29    17    18    ar
30    17    47    1
31    18    19    ar
32    19    20    1
33    19    36    ar
34    20    21    1
35    20    48    1
36    21    35    ar
37    21    22    ar
38    22    23    ar
39    22    49    1
40    23    24    ar
41    23    50    1
42    24    25    1
43    24    33    ar
44    25    32    1
45    25    26    1
46    26    27    1
47    26    51    1
48    26    52    1
49    27    28    1
50    27    53    1
51    27    54    1
52    28    29    1
53    28    30    1
54    28    31    1
55    31    32    1
56    31    55    1
57    31    56    1
58    32    57    1
59    32    58    1
60    33    34    1
61    33    35    ar
62    35    59    1
63    36    37    ar
@<TRIPOS>SUBSTRUCTURE
1   ZINC000095930185 1     RESIDUE    1   A     ZIN   1


@<TRIPOS>MOLECULE
CCN1C2=NC(=NC=C2C=C(C1=O)C3=C(C=C(C=C3)Cl)Cl)NC4=CC(=C(C=C4)N5CCNCC5)F
59    63    1     0     0
SMALL
USER_CHARGES
@<TRIPOS>ATOM
1      C1     -0.5101    2.1392   -0.1814 C.3      1 ZINC000095930185   -0.1600
2      C2     -0.2834    0.6334   -0.0330 C.3      1 ZINC000095930185    0.1000
3      N3     -1.5763   -0.0554   -0.0125 N.am     1 ZINC000095930185   -0.5000
4      C4     -2.2067   -0.2550    1.1610 C.2      1 ZINC000095930185    0.5500
5      O5     -1.6986    0.1374    2.1962 O.2      1 ZINC000095930185   -0.4900
6      C6     -3.5000   -0.9409    1.1985 C.2      1 ZINC000095930185   -0.1500
7      C7     -4.1931   -1.1592    2.4897 C.ar     1 ZINC000095930185   -0.0200
8      C8     -3.7375   -2.1381    3.3717 C.ar     1 ZINC000095930185   -0.0700
9      C9     -4.3867   -2.3374    4.5730 C.ar     1 ZINC000095930185   -0.1000
10     C10    -5.4889   -1.5676    4.9037 C.ar     1 ZINC000095930185   -0.0200
11     Cl11   -6.3003   -1.8242    6.4168 Cl       1 ZINC000095930185   -0.0500
12     C12    -5.9462   -0.5935    4.0324 C.ar     1 ZINC000095930185   -0.1000
13     C13    -5.3013   -0.3817    2.8301 C.ar     1 ZINC000095930185   -0.0100
14     Cl14   -5.8754    0.8399    1.7384 Cl       1 ZINC000095930185   -0.0500
15     C15    -4.0632   -1.3783    0.0296 C.2      1 ZINC000095930185    0.0200
16     C16    -3.3782   -1.1551   -1.1865 C.ar     1 ZINC000095930185   -0.2700
17     C17    -3.9126   -1.5834   -2.4110 C.ar     1 ZINC000095930185    0.2600
18     N18    -3.2293   -1.3480   -3.5154 N.ar     1 ZINC000095930185   -0.5700
19     C19    -2.0594   -0.7195   -3.4795 C.ar     1 ZINC000095930185    0.6000
20     N20    -1.3862   -0.4984   -4.6652 N.pl3    1 ZINC000095930185   -0.6300
21     C21    -1.9900   -0.8282   -5.8852 C.ar     1 ZINC000095930185    0.1900
22     C22    -3.3636   -0.6975   -6.0374 C.ar     1 ZINC000095930185   -0.0900
23     C23    -3.9602   -1.0225   -7.2405 C.ar     1 ZINC000095930185   -0.0800
24     C24    -3.1866   -1.4798   -8.2978 C.ar     1 ZINC000095930185    0.0400
25     N25    -3.7918   -1.8088   -9.5178 N.3      1 ZINC000095930185   -0.4800
26     C26    -2.8073   -2.3512  -10.4647 C.3      1 ZINC000095930185    0.0100
27     C27    -3.5170   -2.7525  -11.7598 C.3      1 ZINC000095930185   -0.0100
28     N28    -4.1823   -1.5775  -12.3380 N.4      1 ZINC000095930185   -0.5100
29     H29    -3.4965   -0.8619  -12.5267 H        1 ZINC000095930185    0.4300
30     H30    -4.6399   -1.8398  -13.1982 H        1 ZINC000095930185    0.4400
31     C31    -5.1797   -1.0620  -11.3909 C.3      1 ZINC000095930185    0.0000
32     C32    -4.4839   -0.6467  -10.0928 C.3      1 ZINC000095930185    0.0200
33     C33    -1.8102   -1.6111   -8.1463 C.ar     1 ZINC000095930185    0.0800
34     F34    -1.0563   -2.0559   -9.1754 F        1 ZINC000095930185   -0.1300
35     C35    -1.2134   -1.2804   -6.9445 C.ar     1 ZINC000095930185   -0.1600
36     N36    -1.5151   -0.2967   -2.3486 N.ar     1 ZINC000095930185   -0.5900
37     C37    -2.1353   -0.4855   -1.1893 C.ar     1 ZINC000095930185    0.4700
38     H38     0.4518    2.6516   -0.1967 H        1 ZINC000095930185    0.0800
39     H39    -1.0417    2.3366   -1.1123 H        1 ZINC000095930185    0.0600
40     H40    -1.1018    2.5021    0.6590 H        1 ZINC000095930185    0.0600
41     H41     0.3083    0.2704   -0.8733 H        1 ZINC000095930185    0.1000
42     H42     0.2482    0.4360    0.8979 H        1 ZINC000095930185    0.1000
43     H43    -2.8781   -2.7397    3.1150 H        1 ZINC000095930185    0.1400
44     H44    -4.0345   -3.0957    5.2565 H        1 ZINC000095930185    0.1500
45     H45    -6.8064    0.0042    4.2954 H        1 ZINC000095930185    0.1500
46     H46    -5.0161   -1.8865    0.0368 H        1 ZINC000095930185    0.1500
47     H47    -4.8628   -2.0954   -2.4491 H        1 ZINC000095930185    0.1900
48     H48    -0.4954   -0.1149   -4.6529 H        1 ZINC000095930185    0.4300
49     H49    -3.9664   -0.3419   -5.2148 H        1 ZINC000095930185    0.1500
50     H50    -5.0289   -0.9209   -7.3579 H        1 ZINC000095930185    0.1400
51     H51    -2.0554   -1.5926  -10.6821 H        1 ZINC000095930185    0.0800
52     H52    -2.3260   -3.2261  -10.0277 H        1 ZINC000095930185    0.1400
53     H53    -2.7864   -3.1419  -12.4688 H        1 ZINC000095930185    0.1400
54     H54    -4.2593   -3.5210  -11.5442 H        1 ZINC000095930185    0.1400
55     H55    -5.6818   -0.1981  -11.8264 H        1 ZINC000095930185    0.1400
56     H56    -5.9135   -1.8391  -11.1772 H        1 ZINC000095930185    0.1400
57     H57    -5.2257   -0.2780   -9.3844 H        1 ZINC000095930185    0.1300
58     H58    -3.7596    0.1400  -10.3040 H        1 ZINC000095930185    0.0700
59     H59    -0.1447   -1.3817   -6.8261 H        1 ZINC000095930185    0.1500
@<TRIPOS>BOND
1     1     2     1
2     1     38    1
3     1     39    1
4     1     40    1
5     2     3     1
6     2     41    1
7     2     42    1
8     3     37    1
9     3     4     am
10    4     5     2
11    4     6     1
12    6     7     1
13    6     15    2
14    7     13    ar
15    7     8     ar
16    8     9     ar
17    8     43    1
18    9     10    ar
19    9     44    1
20    10    11    1
21    10    12    ar
22    12    13    ar
23    12    45    1
24    13    14    1
25    15    16    1
26    15    46    1
27    16    37    ar
28    16    17    ar
29    17    18    ar
30    17    47    1
31    18    19    ar
32    19    20    1
33    19    36    ar
34    20    21    1
35    20    48    1
36    21    35    ar
37    21    22    ar
38    22    23    ar
39    22    49    1
40    23    24    ar
41    23    50    1
42    24    25    1
43    24    33    ar
44    25    32    1
45    25    26    1
46    26    27    1
47    26    51    1
48    26    52    1
49    27    28    1
50    27    53    1
51    27    54    1
52    28    29    1
53    28    30    1
54    28    31    1
55    31    32    1
56    31    55    1
57    31    56    1
58    32    57    1
59    32    58    1
60    33    34    1
61    33    35    ar
62    35    59    1
63    36    37    ar
@<TRIPOS>SUBSTRUCTURE
1   ZINC000095930185 1     RESIDUE    1   A     ZIN   1


@<TRIPOS>MOLECULE
CN1CCN(CC1)CCCOC2=C(C=C3C(=C2)N=CC(=C3NC4=CC(=C(C=C4Cl)Cl)OC)C#N)OC
66    69    1     0     0
SMALL
USER_CHARGES
@<TRIPOS>ATOM
1      C1     -1.1463   -2.9635    3.1278 C.3      1 ZINC000022448983    0.0200
2      O2     -0.4267   -2.8595    1.8976 O.3      1 ZINC000022448983   -0.2900
3      C3      0.5694   -1.9360    1.8415 C.ar     1 ZINC000022448983    0.1700
4      C4      0.9237   -1.2289    2.9791 C.ar     1 ZINC000022448983   -0.1900
5      C5      1.9417   -0.2867    2.9191 C.ar     1 ZINC000022448983    0.1700
6      N6      2.3020    0.4284    4.0655 N.pl3    1 ZINC000022448983   -0.6700
7      C7      2.0695    1.7875    4.1328 C.ar     1 ZINC000022448983    0.3200
8      C8      2.8114    2.6128    5.0088 C.ar     1 ZINC000022448983   -0.1300
9      C9      3.8083    2.0759    5.8372 C.ar     1 ZINC000022448983   -0.1500
10     C10     4.5100    2.8952    6.6734 C.ar     1 ZINC000022448983    0.1100
11     O11     5.4757    2.3720    7.4752 O.3      1 ZINC000022448983   -0.3000
12     C12     5.6985    0.9632    7.3879 C.3      1 ZINC000022448983    0.0200
13     C13     4.2447    4.2714    6.7130 C.ar     1 ZINC000022448983    0.1600
14     O14     4.9553    5.0689    7.5524 O.3      1 ZINC000022448983   -0.3000
15     C15     4.6384    6.4623    7.5469 C.3      1 ZINC000022448983    0.0500
16     C16     5.5351    7.1932    8.5481 C.3      1 ZINC000022448983   -0.1300
17     C17     5.1958    8.6851    8.5422 C.3      1 ZINC000022448983    0.0600
18     N18     6.0568    9.3869    9.5035 N.3      1 ZINC000022448983   -0.5400
19     C19     6.1116    8.6679   10.7842 C.3      1 ZINC000022448983    0.0100
20     C20     7.0630    9.3976   11.7351 C.3      1 ZINC000022448983    0.0000
21     N21     6.5873   10.7713   11.9451 N.4      1 ZINC000022448983   -0.3900
22     H22     5.6574   10.7490   12.3360 H        1 ZINC000022448983    0.4200
23     C23     7.4911   11.4658   12.8719 C.3      1 ZINC000022448983   -0.0500
24     C24     6.5615   11.4840   10.6611 C.3      1 ZINC000022448983    0.0000
25     C25     5.6059   10.7718    9.7013 C.3      1 ZINC000022448983    0.0200
26     C26     3.2725    4.8232    5.9104 C.ar     1 ZINC000022448983   -0.1800
27     C27     2.5366    4.0013    5.0425 C.ar     1 ZINC000022448983    0.1900
28     N28     1.5858    4.5210    4.2527 N.ar     1 ZINC000022448983   -0.5000
29     C29     0.8835    3.7806    3.4332 C.ar     1 ZINC000022448983    0.2200
30     C30     1.0927    2.3964    3.3297 C.ar     1 ZINC000022448983   -0.1600
31     C31     0.3089    1.6119    2.4236 C.1      1 ZINC000022448983    0.2500
32     N32    -0.3128    0.9895    1.7049 N.1      1 ZINC000022448983   -0.4000
33     C33     2.6025   -0.0554    1.7183 C.ar     1 ZINC000022448983   -0.0700
34     Cl34    3.8760    1.1218    1.6414 Cl       1 ZINC000022448983   -0.0400
35     C35     2.2462   -0.7629    0.5853 C.ar     1 ZINC000022448983   -0.0500
36     C36     1.2360   -1.7053    0.6452 C.ar     1 ZINC000022448983   -0.0500
37     Cl37    0.7916   -2.5916   -0.7798 Cl       1 ZINC000022448983   -0.0300
38     H38    -1.5618   -1.9902    3.3891 H        1 ZINC000022448983    0.0600
39     H39    -1.9551   -3.6855    3.0157 H        1 ZINC000022448983    0.1100
40     H40    -0.4710   -3.2940    3.9170 H        1 ZINC000022448983    0.0600
41     H41     0.4086   -1.4101    3.9108 H        1 ZINC000022448983    0.1500
42     H42     2.7154   -0.0306    4.8134 H        1 ZINC000022448983    0.4200
43     H43     4.0197    1.0171    5.8136 H        1 ZINC000022448983    0.1400
44     H44     6.4926    0.6775    8.0778 H        1 ZINC000022448983    0.1100
45     H45     4.7823    0.4336    7.6491 H        1 ZINC000022448983    0.0600
46     H46     5.9905    0.7039    6.3703 H        1 ZINC000022448983    0.0600
47     H47     4.8022    6.8682    6.5486 H        1 ZINC000022448983    0.0700
48     H48     3.5940    6.5985    7.8276 H        1 ZINC000022448983    0.0700
49     H49     5.3713    6.7873    9.5464 H        1 ZINC000022448983    0.0800
50     H50     6.5795    7.0570    8.2674 H        1 ZINC000022448983    0.0900
51     H51     5.3596    9.0911    7.5440 H        1 ZINC000022448983    0.1000
52     H52     4.1514    8.8213    8.8230 H        1 ZINC000022448983    0.0500
53     H53     5.1148    8.6318   11.2240 H        1 ZINC000022448983    0.0600
54     H54     6.4725    7.6532   10.6165 H        1 ZINC000022448983    0.1300
55     H55     7.0941    8.8738   12.6905 H        1 ZINC000022448983    0.1400
56     H56     8.0626    9.4215   11.3012 H        1 ZINC000022448983    0.1400
57     H57     8.4959   11.4896   12.4501 H        1 ZINC000022448983    0.1200
58     H58     7.1383   12.4853   13.0279 H        1 ZINC000022448983    0.1200
59     H59     7.5097   10.9379   13.8253 H        1 ZINC000022448983    0.1200
60     H60     6.2208   12.5071   10.8202 H        1 ZINC000022448983    0.1400
61     H61     7.5637   11.4973   10.2327 H        1 ZINC000022448983    0.1400
62     H62     5.5979   11.2919    8.7434 H        1 ZINC000022448983    0.1300
63     H63     4.6009   10.7703   10.1231 H        1 ZINC000022448983    0.0600
64     H64     3.0761    5.8845    5.9486 H        1 ZINC000022448983    0.1500
65     H65     0.1287    4.2469    2.8174 H        1 ZINC000022448983    0.1700
66     H66     2.7604   -0.5823   -0.3471 H        1 ZINC000022448983    0.1600
@<TRIPOS>BOND
1     1     2     1
2     1     38    1
3     1     39    1
4     1     40    1
5     2     3     1
6     3     36    ar
7     3     4     ar
8     4     5     ar
9     4     41    1
10    5     6     1
11    5     33    ar
12    6     7     1
13    6     42    1
14    7     30    ar
15    7     8     ar
16    8     27    ar
17    8     9     ar
18    9     10    ar
19    9     43    1
20    10    11    1
21    10    13    ar
22    11    12    1
23    12    44    1
24    12    45    1
25    12    46    1
26    13    14    1
27    13    26    ar
28    14    15    1
29    15    16    1
30    15    47    1
31    15    48    1
32    16    17    1
33    16    49    1
34    16    50    1
35    17    18    1
36    17    51    1
37    17    52    1
38    18    25    1
39    18    19    1
40    19    20    1
41    19    53    1
42    19    54    1
43    20    21    1
44    20    55    1
45    20    56    1
46    21    22    1
47    21    23    1
48    21    24    1
49    23    57    1
50    23    58    1
51    23    59    1
52    24    25    1
53    24    60    1
54    24    61    1
55    25    62    1
56    25    63    1
57    26    27    ar
58    26    64    1
59    27    28    ar
60    28    29    ar
61    29    30    ar
62    29    65    1
63    30    31    1
64    31    32    3
65    33    34    1
66    33    35    ar
67    35    36    ar
68    35    66    1
69    36    37    1
@<TRIPOS>SUBSTRUCTURE
1   ZINC000022448983 1     RESIDUE    1   A     ZIN   1


@<TRIPOS>MOLECULE
COC1=C(C=C2C(=C1)C(=NC=N2)NC3=CC=C(C=C3)NC(=O)C4=CC=CC=C4)OCCCN5CCOCC5
69    73    1     0     0
SMALL
USER_CHARGES
@<TRIPOS>ATOM
1      C1     -0.0373    1.3344   -0.0351 C.3      1 ZINC000022067501    0.0200
2      O2      0.0018   -0.0940   -0.0463 O.3      1 ZINC000022067501   -0.3000
3      C3      0.6282   -0.6862   -1.0980 C.ar     1 ZINC000022067501    0.1100
4      C4      0.6938   -2.0847   -1.1676 C.ar     1 ZINC000022067501    0.1700
5      O5      0.1314   -2.8336   -0.1835 O.3      1 ZINC000022067501   -0.2900
6      C6      0.2314   -4.2534   -0.3112 C.3      1 ZINC000022067501    0.0600
7      C7     -0.4546   -4.9223    0.8816 C.3      1 ZINC000022067501   -0.1200
8      C8     -0.3475   -6.4424    0.7449 C.3      1 ZINC000022067501    0.0600
9      N9     -1.0062   -7.0846    1.8902 N.3      1 ZINC000022067501   -0.5400
10     C10    -0.6055   -6.4480    3.1533 C.3      1 ZINC000022067501    0.0100
11     C11    -1.3586   -7.1070    4.3120 C.3      1 ZINC000022067501    0.0600
12     O12    -1.0954   -8.5128    4.3068 O.3      1 ZINC000022067501   -0.3900
13     C13    -1.4740   -9.1649    3.0916 C.3      1 ZINC000022067501    0.0600
14     C14    -0.7221   -8.5267    1.9206 C.3      1 ZINC000022067501    0.0200
15     C15     1.3220   -2.7078   -2.2232 C.ar     1 ZINC000022067501   -0.1800
16     C16     1.9008   -1.9334   -3.2360 C.ar     1 ZINC000022067501    0.2000
17     N17     2.5239   -2.4917   -4.2857 N.ar     1 ZINC000022067501   -0.5500
18     C18     3.0565   -1.7402   -5.2197 C.ar     1 ZINC000022067501    0.3400
19     N19     3.0159   -0.4176   -5.1895 N.ar     1 ZINC000022067501   -0.5800
20     C20     2.4248    0.2355   -4.1974 C.ar     1 ZINC000022067501    0.4700
21     N21     2.3896    1.6151   -4.1791 N.pl3    1 ZINC000022067501   -0.6400
22     C22     3.0599    2.3453   -5.1670 C.ar     1 ZINC000022067501    0.1300
23     C23     3.6640    3.5546   -4.8473 C.ar     1 ZINC000022067501   -0.1300
24     C24     4.3250    4.2748   -5.8218 C.ar     1 ZINC000022067501   -0.1200
25     C25     4.3858    3.7906   -7.1221 C.ar     1 ZINC000022067501    0.1300
26     N26     5.0564    4.5213   -8.1106 N.am     1 ZINC000022067501   -0.6700
27     C27     4.5930    4.5258   -9.3762 C.2      1 ZINC000022067501    0.5600
28     O28     3.6396    3.8341   -9.6769 O.2      1 ZINC000022067501   -0.5100
29     C29     5.2440    5.3719  -10.3986 C.ar     1 ZINC000022067501   -0.1400
30     C30     6.3424    6.1630  -10.0580 C.ar     1 ZINC000022067501   -0.0900
31     C31     6.9453    6.9504  -11.0170 C.ar     1 ZINC000022067501   -0.1300
32     C32     6.4635    6.9571  -12.3140 C.ar     1 ZINC000022067501   -0.0900
33     C33     5.3748    6.1756  -12.6582 C.ar     1 ZINC000022067501   -0.1300
34     C34     4.7665    5.3789  -11.7103 C.ar     1 ZINC000022067501   -0.0600
35     C35     3.7818    2.5815   -7.4419 C.ar     1 ZINC000022067501   -0.1000
36     C36     3.1260    1.8582   -6.4662 C.ar     1 ZINC000022067501   -0.0900
37     C37     1.8309   -0.5203   -3.1585 C.ar     1 ZINC000022067501   -0.1800
38     C38     1.1817    0.0882   -2.0778 C.ar     1 ZINC000022067501   -0.1500
39     H39     0.9801    1.7256   -0.0281 H        1 ZINC000022067501    0.0600
40     H40    -0.5575    1.6906   -0.9243 H        1 ZINC000022067501    0.0600
41     H41    -0.5642    1.6765    0.8556 H        1 ZINC000022067501    0.1100
42     H42    -0.2542   -4.5702   -1.2342 H        1 ZINC000022067501    0.0700
43     H43     1.2820   -4.5429   -0.3354 H        1 ZINC000022067501    0.0700
44     H44     0.0310   -4.6054    1.8046 H        1 ZINC000022067501    0.0800
45     H45    -1.5051   -4.6327    0.9058 H        1 ZINC000022067501    0.0900
46     H46    -0.8331   -6.7593   -0.1781 H        1 ZINC000022067501    0.0800
47     H47     0.7031   -6.7319    0.7207 H        1 ZINC000022067501    0.0400
48     H48     0.4675   -6.5722    3.2992 H        1 ZINC000022067501    0.0400
49     H49    -0.8483   -5.3860    3.1187 H        1 ZINC000022067501    0.0900
50     H50    -1.0226   -6.6773    5.2557 H        1 ZINC000022067501    0.1000
51     H51    -2.4288   -6.9367    4.1943 H        1 ZINC000022067501    0.0600
52     H52    -1.2215  -10.2235    3.1527 H        1 ZINC000022067501    0.1000
53     H53    -2.5475   -9.0544    2.9384 H        1 ZINC000022067501    0.0600
54     H54    -1.0500   -8.9821    0.9861 H        1 ZINC000022067501    0.0900
55     H55     0.3491   -8.6841    2.0468 H        1 ZINC000022067501    0.0400
56     H56     1.3682   -3.7858   -2.2692 H        1 ZINC000022067501    0.1500
57     H57     3.5506   -2.2222   -6.0503 H        1 ZINC000022067501    0.2000
58     H58     1.9004    2.0785   -3.4814 H        1 ZINC000022067501    0.4200
59     H59     3.6161    3.9315   -3.8363 H        1 ZINC000022067501    0.1300
60     H60     4.7947    5.2151   -5.5732 H        1 ZINC000022067501    0.1300
61     H61     5.8544    5.0242   -7.8845 H        1 ZINC000022067501    0.4100
62     H62     6.7192    6.1590   -9.0459 H        1 ZINC000022067501    0.1300
63     H63     7.7950    7.5633  -10.7547 H        1 ZINC000022067501    0.1300
64     H64     6.9392    7.5753  -13.0610 H        1 ZINC000022067501    0.1300
65     H65     5.0035    6.1856  -13.6723 H        1 ZINC000022067501    0.1300
66     H66     3.9170    4.7691  -11.9803 H        1 ZINC000022067501    0.1400
67     H67     3.8288    2.2053   -8.4532 H        1 ZINC000022067501    0.1400
68     H68     2.6564    0.9179   -6.7148 H        1 ZINC000022067501    0.1500
69     H69     1.1217    1.1649   -2.0172 H        1 ZINC000022067501    0.1400
@<TRIPOS>BOND
1     1     2     1
2     1     39    1
3     1     40    1
4     1     41    1
5     2     3     1
6     3     38    ar
7     3     4     ar
8     4     5     1
9     4     15    ar
10    5     6     1
11    6     7     1
12    6     42    1
13    6     43    1
14    7     8     1
15    7     44    1
16    7     45    1
17    8     9     1
18    8     46    1
19    8     47    1
20    9     14    1
21    9     10    1
22    10    11    1
23    10    48    1
24    10    49    1
25    11    12    1
26    11    50    1
27    11    51    1
28    12    13    1
29    13    14    1
30    13    52    1
31    13    53    1
32    14    54    1
33    14    55    1
34    15    16    ar
35    15    56    1
36    16    37    ar
37    16    17    ar
38    17    18    ar
39    18    19    ar
40    18    57    1
41    19    20    ar
42    20    21    1
43    20    37    ar
44    21    22    1
45    21    58    1
46    22    36    ar
47    22    23    ar
48    23    24    ar
49    23    59    1
50    24    25    ar
51    24    60    1
52    25    26    1
53    25    35    ar
54    26    27    am
55    26    61    1
56    27    28    2
57    27    29    1
58    29    34    ar
59    29    30    ar
60    30    31    ar
61    30    62    1
62    31    32    ar
63    31    63    1
64    32    33    ar
65    32    64    1
66    33    34    ar
67    33    65    1
68    34    66    1
69    35    36    ar
70    35    67    1
71    36    68    1
72    37    38    ar
73    38    69    1
@<TRIPOS>SUBSTRUCTURE
1   ZINC000022067501 1     RESIDUE    1   A     ZIN   1


@<TRIPOS>MOLECULE
COC1=C(C=CC(=C1)C=CC(=O)CC(=O)C=CC2=CC(=C(C=C2)O)OC)O
47    48    1     0     0
SMALL
USER_CHARGES
@<TRIPOS>ATOM
1      C1     -0.0173    1.4248    0.0099 C.3      1 ZINC000000899824    0.0200
2      O2      0.0021   -0.0041    0.0020 O.3      1 ZINC000000899824   -0.3100
3      C3     -1.2011   -0.6379    0.0101 C.ar     1 ZINC000000899824    0.1000
4      C4     -2.3683    0.0982    0.0195 C.ar     1 ZINC000000899824   -0.1700
5      C5     -3.6061   -0.5585    0.0278 C.ar     1 ZINC000000899824   -0.0600
6      C6     -4.8515    0.2183    0.0373 C.2      1 ZINC000000899824    0.0000
7      C7     -6.0479   -0.4192    0.0454 C.2      1 ZINC000000899824   -0.2400
8      C8     -7.2424    0.3259    0.0545 C.2      1 ZINC000000899824    0.3700
9      O9     -7.2010    1.5399    0.0552 O.2      1 ZINC000000899824   -0.4300
10     C10    -8.5723   -0.3828    0.0635 C.3      1 ZINC000000899824   -0.2200
11     C11    -9.6837    0.6349    0.0722 C.2      1 ZINC000000899824    0.3700
12     O12    -9.4212    1.8210    0.0713 O.2      1 ZINC000000899824   -0.4300
13     C13   -11.0262    0.2111    0.0815 C.2      1 ZINC000000899824   -0.2400
14     C14   -12.0260    1.1266    0.0894 C.2      1 ZINC000000899824    0.0000
15     C15   -13.4257    0.6847    0.0990 C.ar     1 ZINC000000899824   -0.0500
16     C16   -13.7307   -0.6820    0.1059 C.ar     1 ZINC000000899824   -0.1200
17     C17   -15.0451   -1.0935    0.1155 C.ar     1 ZINC000000899824   -0.1100
18     C18   -16.0700   -0.1565    0.1182 C.ar     1 ZINC000000899824    0.0900
19     O19   -17.3638   -0.5687    0.1281 O.3      1 ZINC000000899824   -0.4800
20     C20   -15.7746    1.2071    0.1114 C.ar     1 ZINC000000899824    0.1000
21     O21   -16.7819    2.1208    0.1146 O.3      1 ZINC000000899824   -0.3100
22     C22   -16.4071    3.4997    0.1071 C.3      1 ZINC000000899824    0.0200
23     C23   -14.4607    1.6291    0.1072 C.ar     1 ZINC000000899824   -0.1700
24     C24    -3.6513   -1.9581    0.0265 C.ar     1 ZINC000000899824   -0.1200
25     C25    -2.4809   -2.6842    0.0171 C.ar     1 ZINC000000899824   -0.1100
26     C26    -1.2549   -2.0321    0.0031 C.ar     1 ZINC000000899824    0.0900
27     O27    -0.1046   -2.7537   -0.0066 O.3      1 ZINC000000899824   -0.4800
28     H28     1.0053    1.8021    0.0021 H        1 ZINC000000899824    0.1000
29     H29    -0.5445    1.7859   -0.8732 H        1 ZINC000000899824    0.0600
30     H30    -0.5275    1.7763    0.9067 H        1 ZINC000000899824    0.0600
31     H31    -2.3279    1.1774    0.0208 H        1 ZINC000000899824    0.1400
32     H32    -4.8147    1.2977    0.0380 H        1 ZINC000000899824    0.1400
33     H33    -6.0846   -1.4985    0.0448 H        1 ZINC000000899824    0.1400
34     H34    -8.6577   -1.0064   -0.8264 H        1 ZINC000000899824    0.1300
35     H35    -8.6450   -1.0078    0.9535 H        1 ZINC000000899824    0.1300
36     H36   -11.2596   -0.8434    0.0823 H        1 ZINC000000899824    0.1400
37     H37   -11.7926    2.1811    0.0886 H        1 ZINC000000899824    0.1400
38     H38   -12.9357   -1.4130    0.1035 H        1 ZINC000000899824    0.1400
39     H39   -15.2792   -2.1478    0.1204 H        1 ZINC000000899824    0.1400
40     H40   -17.7329   -0.6846    1.0143 H        1 ZINC000000899824    0.3900
41     H41   -17.3034    4.1199    0.1107 H        1 ZINC000000899824    0.1000
42     H42   -15.8102    3.7188    0.9925 H        1 ZINC000000899824    0.0600
43     H43   -15.8217    3.7123   -0.7874 H        1 ZINC000000899824    0.0600
44     H44   -14.2309    2.6844    0.1022 H        1 ZINC000000899824    0.1400
45     H45    -4.6033   -2.4679    0.0333 H        1 ZINC000000899824    0.1400
46     H46    -2.5168   -3.7636    0.0165 H        1 ZINC000000899824    0.1400
47     H47     0.2197   -2.9650   -0.8927 H        1 ZINC000000899824    0.3900
@<TRIPOS>BOND
1     1     2     1
2     1     28    1
3     1     29    1
4     1     30    1
5     2     3     1
6     3     26    ar
7     3     4     ar
8     4     5     ar
9     4     31    1
10    5     6     1
11    5     24    ar
12    6     7     2
13    6     32    1
14    7     8     1
15    7     33    1
16    8     9     2
17    8     10    1
18    10    11    1
19    10    34    1
20    10    35    1
21    11    12    2
22    11    13    1
23    13    14    2
24    13    36    1
25    14    15    1
26    14    37    1
27    15    23    ar
28    15    16    ar
29    16    17    ar
30    16    38    1
31    17    18    ar
32    17    39    1
33    18    19    1
34    18    20    ar
35    19    40    1
36    20    21    1
37    20    23    ar
38    21    22    1
39    22    41    1
40    22    42    1
41    22    43    1
42    23    44    1
43    24    25    ar
44    24    45    1
45    25    26    ar
46    25    46    1
47    26    27    1
48    27    47    1
@<TRIPOS>SUBSTRUCTURE
1   ZINC000000899824 1     RESIDUE    1   A     ZIN   1


@<TRIPOS>MOLECULE
COC1=CC=C(C=C1)CNC(=O)NC2=NC=C(S2)[N+](=O)[O-]
  33   34    0    0    0
SMALL
USER_CHARGES
NO_NAME
@<TRIPOS>ATOM
    1 C1       -0.0173     1.4248     0.0099 C.3    1 <0>       0.0300
    2 O2        0.0021    -0.0041     0.0020 O.3    1 <0>      -0.3200
    3 C3       -1.2003    -0.6375     0.0101 C.ar   1 <0>       0.1400
    4 C4       -2.3746     0.1011     0.0195 C.ar   1 <0>      -0.2100
    5 C5       -3.5956    -0.5451     0.0272 C.ar   1 <0>      -0.0600
    6 C6       -3.6478    -1.9268     0.0260 C.ar   1 <0>      -0.1600
    7 C7       -4.9811    -2.6292     0.0350 C.3    1 <0>       0.1800
    8 N8       -5.4232    -2.8552    -1.3433 N.am   1 <0>      -0.7300
    9 C9       -6.5973    -3.4725    -1.5817 C.2    1 <0>       0.7000
   10 O10      -7.2896    -3.8418    -0.6529 O.2    1 <0>      -0.5100
   11 N11      -7.0041    -3.6805    -2.8497 N.am   1 <0>      -0.6300
   12 C12      -8.2150    -4.3171    -3.0956 C.2    1 <0>       0.3200
   13 N13      -9.0286    -4.7439    -2.1812 N.2    1 <0>      -0.4700
   14 C14     -10.1385    -5.3276    -2.5941 C.2    1 <0>       0.1900
   15 C15     -10.2685    -5.3971    -3.9200 C.2    1 <0>      -0.2500
   16 N16     -11.4077    -5.9960    -4.6518 N.pl3  1 <0>       0.0700
   17 O17     -12.3383    -6.4840    -4.0358 O.2    1 <0>      -0.1400
   18 O18     -11.4143    -6.0007    -5.8698 O.2    1 <0>      -0.1600
   19 S19      -8.8516    -4.6448    -4.6481 S.3    1 <0>       0.2700
   20 C20      -2.4788    -2.6651     0.0162 C.ar   1 <0>      -0.0600
   21 C21      -1.2554    -2.0237     0.0032 C.ar   1 <0>      -0.1500
   22 H22       1.0053     1.8021     0.0021 H      1 <0>       0.1000
   23 H23      -0.5445     1.7859    -0.8732 H      1 <0>       0.0600
   24 H24      -0.5275     1.7763     0.9067 H      1 <0>       0.0600
   25 H25      -2.3343     1.1803     0.0211 H      1 <0>       0.1300
   26 H26      -4.5101     0.0294     0.0345 H      1 <0>       0.1300
   27 H27      -4.8840    -3.5865     0.5470 H      1 <0>       0.0800
   28 H28      -5.7136    -2.0117     0.5548 H      1 <0>       0.0800
   29 H29      -4.8709    -2.5606    -2.0843 H      1 <0>       0.4000
   30 H30      -6.4518    -3.3859    -3.5907 H      1 <0>       0.4300
   31 H31     -10.8809    -5.7175    -1.9135 H      1 <0>       0.2100
   32 H32      -2.5223    -3.7443     0.0150 H      1 <0>       0.1300
   33 H33      -0.3426    -2.6008    -0.0045 H      1 <0>       0.1300
@<TRIPOS>BOND
   1    1    2 1
   2    1   22 1
   3    1   23 1
   4    1   24 1
   5    2    3 1
   6    3   21 ar
   7    3    4 ar
   8    4    5 ar
   9    4   25 1
  10    5    6 ar
  11    5   26 1
  12    6    7 1
  13    6   20 ar
  14    7    8 1
  15    7   27 1
  16    7   28 1
  17    8    9 am
  18    8   29 1
  19    9   10 2
  20    9   11 am
  21   11   12 1
  22   11   30 1
  23   12   19 1
  24   12   13 2
  25   13   14 1
  26   14   15 2
  27   14   31 1
  28   15   16 1
  29   15   19 1
  30   16   17 2
  31   16   18 2
  32   20   21 ar
  33   20   32 1
  34   21   33 1


